# File generated by Flopy version 3.3.5 on 05/30/2022 at 17:40:44.
BEGIN options
  TIME_UNITS  seconds
END options

BEGIN dimensions
  NPER  1
END dimensions

BEGIN perioddata
       6.00000000  1       1.00000000
END perioddata

