# File generated by Flopy version 3.3.5 on 04/28/2022 at 15:59:11.
BEGIN griddata
  strt
    CONSTANT      15.00000000
END griddata

