# File generated by Flopy version 3.3.5 on 06/01/2022 at 18:12:05.
BEGIN options
  auxiliary  fid
  BOUNDNAMES
  SAVE_FLOWS
END options

BEGIN dimensions
  MAXBOUND  794
END dimensions

BEGIN period  1
    OPEN/CLOSE  'ext/riv_spd_06_1.txt'
END period  1

