# File generated by Flopy version 3.3.5 on 05/30/2022 at 17:40:46.
BEGIN options
  READASARRAYS
  SAVE_FLOWS
END options

BEGIN period  1
  recharge
    OPEN/CLOSE  '../com_ext/rech_spd_1.txt'  FACTOR  1.0
END period  1

