# File generated by Flopy version 3.3.5 on 04/21/2022 at 16:08:51.
BEGIN griddata
  strt
    CONSTANT      15.00000000
END griddata

