# File generated by Flopy version 3.3.5 on 04/21/2022 at 16:08:48.
BEGIN options
  TIME_UNITS  seconds
END options

BEGIN dimensions
  NPER  1
END dimensions

BEGIN perioddata
      99.00000000  1       1.00000000
END perioddata

