# File generated by Flopy version 3.3.5 on 04/28/2022 at 15:58:37.
BEGIN options
END options

BEGIN packages
  disv6  ./ml.disv  disv
  ic6  ./ml.ic  ic
  npf6  ./ml.npf  npf
  ghb6  ./ml.ghb  ghb_0
  rch6  ./ml.rcha  rcha_0
  obs6  ./ml.obs  obs_0
  oc6  ./ml.oc  oc
  WEL6  ml.wel  wel_0
  DRN6  ml.drn  drn_0
  RIV6  ml.riv  riv_0
END packages

