# File generated by Flopy version 3.3.5 on 05/30/2022 at 17:40:31.
BEGIN options
  SAVE_FLOWS
  SAVE_SPECIFIC_DISCHARGE
END options

BEGIN griddata
  icelltype
    CONSTANT  0
  k
    OPEN/CLOSE  '../com_ext/k.txt'  FACTOR  1.0
END griddata

