# File generated by Flopy version 3.3.5 on 05/20/2022 at 11:44:21.
BEGIN options
END options

BEGIN continuous  FILEOUT  sim/drn.csv
  bar  drn  bar
  gal  drn  gal
END continuous  FILEOUT  sim/drn.csv

