# File generated by Flopy version 3.3.5 on 05/20/2022 at 11:44:21.
BEGIN griddata
  strt
    CONSTANT      15.00000000
END griddata

