# File generated by Flopy version 3.3.5 on 05/20/2022 at 11:44:21.
BEGIN options
  SAVE_FLOWS
  SAVE_SPECIFIC_DISCHARGE
END options

BEGIN griddata
  icelltype
    CONSTANT  0
  k
    INTERNAL  FACTOR  1.0
    1.32471300E-04  1.32471300E-04  1.32471300E-04  1.32471300E-04  1.32471300E-04  1.32471300E-04  1.32471300E-04  1.32471300E-04  1.32471300E-04  1.32471300E-04  1.32471300E-04  1.32471300E-04  1.32471300E-04  1.32471300E-04  1.32471300E-04  1.32471300E-04  1.32471300E-04  1.32471300E-04  1.32471300E-04  1.32471300E-04
    1.32471300E-04  1.32471300E-04  1.32471300E-04  1.32471300E-04  1.32471300E-04  1.32471300E-04  1.32471300E-04  1.32471300E-04  1.32471300E-04  1.32471300E-04  1.32471300E-04  1.32471300E-04  1.32471300E-04  1.32471300E-04  1.32471300E-04  1.32471300E-04  1.32471300E-04  1.32471300E-04  1.32471300E-04  1.32471300E-04
    1.32471300E-04  1.32471300E-04  1.32471300E-04  1.32471300E-04  1.32471300E-04  1.32471300E-04  1.32471300E-04  1.32471300E-04  1.32471300E-04  1.32471300E-04  1.32471300E-04  1.32471300E-04  1.32471300E-04  1.32471300E-04  1.32471300E-04  1.32471300E-04  1.32471300E-04  1.32471300E-04  1.32471300E-04  1.32471300E-04
    1.32471300E-04  1.32471300E-04  1.32471300E-04  1.32471300E-04  1.32471300E-04  1.32471300E-04  1.32471300E-04  1.32471300E-04  1.32471300E-04  1.32471300E-04  1.32471300E-04  1.32471300E-04  1.32471300E-04  1.32471300E-04  1.32471300E-04  1.32471300E-04  1.32471300E-04  1.32471300E-04  1.32471300E-04  1.32471300E-04
    1.32471300E-04  1.32471300E-04  1.32471300E-04  1.32471300E-04  1.32471300E-04  1.32471300E-04  1.32471300E-04  1.32471300E-04  1.32471300E-04  1.32471300E-04  1.32471300E-04  1.32471300E-04  1.32471300E-04  1.32471300E-04  1.32471300E-04  1.32471300E-04  1.32471300E-04  1.32471300E-04  1.32471300E-04  1.32471300E-04
    1.32471300E-04  1.32471300E-04  1.32471300E-04  1.32471300E-04  1.32471300E-04  1.32471300E-04  1.32471300E-04  1.32471300E-04  1.32471300E-04  1.32471300E-04  1.32471300E-04  1.32471300E-04  1.32471300E-04  1.32471300E-04  1.32471300E-04  1.32471300E-04  1.32471300E-04  1.32471300E-04  1.32471300E-04  1.32471300E-04
    1.32471300E-04  1.32471300E-04  1.32471300E-04  1.32471300E-04  1.32471300E-04  1.32471300E-04  1.32471300E-04  1.32471300E-04  1.32471300E-04  1.32471300E-04  1.32471300E-04  1.32471300E-04  1.32471300E-04  1.32471300E-04  1.32471300E-04  1.32471300E-04  1.32471300E-04  1.32471300E-04  1.32471300E-04  1.32471300E-04
    1.32471300E-04  1.32471300E-04  1.32471300E-04  1.32471300E-04  1.32471300E-04  1.32471300E-04  1.32471300E-04  1.32471300E-04  1.32471300E-04  1.32471300E-04  1.32471300E-04  1.32471300E-04  1.32471300E-04  1.32471300E-04  1.32529600E-04  1.32476100E-04  1.32471300E-04  1.32471300E-04  1.32471300E-04  1.32471300E-04
    1.32471300E-04  1.32471300E-04  1.32471300E-04  1.32471300E-04  1.32471300E-04  1.32471300E-04  1.32471300E-04  1.32471300E-04  1.32471300E-04  1.32471300E-04  1.32471300E-04  1.32471300E-04  1.32471300E-04  1.32471300E-04  1.32471300E-04  1.32471300E-04  1.32471300E-04  1.32471300E-04  1.32471300E-04  1.32471300E-04
    1.32471300E-04  1.32471300E-04  1.32471300E-04  1.32471300E-04  1.32471300E-04  1.32471300E-04  1.32471300E-04  1.32471300E-04  1.32471300E-04  1.32471300E-04  1.32471300E-04  1.32471300E-04  1.32471300E-04  1.32471300E-04  1.32471300E-04  1.32471300E-04  1.32471300E-04  1.32471300E-04  1.32471300E-04  1.32471300E-04
    1.32471300E-04  1.32471300E-04  1.32548100E-04  1.32603200E-04  1.32451000E-04  1.32652800E-04  1.32471300E-04  1.32495500E-04  1.32471300E-04  1.32471300E-04  1.32471300E-04  1.32471300E-04  1.32471300E-04  1.32471300E-04  1.32471300E-04  1.32547400E-04  1.32698500E-04  1.32471300E-04  1.32533100E-04  1.32471300E-04
    1.32631600E-04  1.32471300E-04  1.32471300E-04  1.32471300E-04  1.32471300E-04  1.32471300E-04  1.32498400E-04  1.32664000E-04  1.32471300E-04  1.32471300E-04  1.32471300E-04  1.33055100E-04  1.32655500E-04  1.32471300E-04  1.32471300E-04  1.32471300E-04  1.32471300E-04  1.32471300E-04  1.32471300E-04  1.32471300E-04
    1.32471300E-04  1.32471300E-04  1.32471300E-04  1.32471300E-04  1.32471300E-04  1.32471300E-04  1.32471300E-04  1.32471300E-04  1.32471300E-04  1.32471300E-04  1.32471300E-04  1.32471300E-04  1.32471300E-04  1.32471300E-04  1.32471300E-04  1.32471300E-04  1.32471300E-04  1.32471300E-04  1.32471300E-04  1.32471300E-04
    1.32471300E-04  1.32471300E-04  1.32471300E-04  1.32471300E-04  1.32482800E-04  1.31677300E-04  1.32455000E-04  1.32471300E-04  1.32528300E-04  1.32471300E-04  1.32471300E-04  1.32471300E-04  1.32471300E-04  1.32471300E-04  1.32470300E-04  1.32471300E-04  1.32471300E-04  1.32471300E-04  1.32472500E-04  1.32471300E-04
    1.32471300E-04  1.32471300E-04  1.32471300E-04  1.32471300E-04  1.32484800E-04  1.32488700E-04  1.32471300E-04  1.32471300E-04  1.32471300E-04  1.32471300E-04  1.32471300E-04  1.32574300E-04  1.32481300E-04  1.32575100E-04  1.32471300E-04  1.32487700E-04  1.32484100E-04  1.32481400E-04  1.32479900E-04  1.32484400E-04
    1.32519900E-04  1.32515600E-04  1.32519200E-04  1.32515300E-04  1.32549200E-04  1.32663500E-04  1.32576500E-04  1.32747600E-04  1.32743100E-04  1.33167900E-04  1.32871900E-04  1.33475600E-04  1.32629600E-04  1.32831100E-04  1.32567000E-04  1.32804000E-04  1.32961400E-04  1.33757400E-04  1.33018000E-04  1.34000400E-04
    1.32667300E-04  1.33152200E-04  1.33205500E-04  1.33911000E-04  1.33264300E-04  1.33161100E-04  1.34252600E-04  1.33914600E-04  1.33673500E-04  1.34268600E-04  1.34236200E-04  1.35047700E-04  1.34805600E-04  1.35141100E-04  1.35672300E-04  1.36180900E-04  1.34758600E-04  1.35849000E-04  1.35247700E-04  1.36784400E-04
    1.36869600E-04  1.37634100E-04  1.38288800E-04  1.39464500E-04  1.35347100E-04  1.35247600E-04  1.36486800E-04  1.36441000E-04  1.34934500E-04  1.35931700E-04  1.35941100E-04  1.37240300E-04  1.38000200E-04  1.38018500E-04  1.40162700E-04  1.40312500E-04  1.37531000E-04  1.38604400E-04  1.39731600E-04  1.40406100E-04
    1.32785200E-04  1.34225100E-04  1.34189900E-04  1.38833900E-04  1.36912700E-04  1.38218100E-04  1.43690700E-04  1.44854200E-04  1.37139900E-04  1.39456900E-04  1.39019100E-04  1.42365700E-04  1.43002100E-04  1.46133600E-04  1.45975900E-04  1.50979500E-04  1.40746800E-04  1.44857000E-04  1.42631500E-04  1.47506900E-04
    1.50986200E-04  1.56696600E-04  1.55545100E-04  1.63851400E-04  1.49780200E-04  1.52672600E-04  1.55780700E-04  1.59560800E-04  1.53309500E-04  1.53297000E-04  1.61453000E-04  1.61798700E-04  1.63491100E-04  1.69254200E-04  1.73624600E-04  1.82898900E-04  1.71899300E-04  1.72678000E-04  1.88933600E-04  1.89434100E-04
    1.36990100E-04  1.33885400E-04  1.42922800E-04  1.39024500E-04  1.34198800E-04  1.37383700E-04  1.39746000E-04  1.43996500E-04  1.53478800E-04  1.50176600E-04  1.60737200E-04  1.56410700E-04  1.47212000E-04  1.47926800E-04  1.53800000E-04  1.53245700E-04  1.69708800E-04  1.66399000E-04  1.84346900E-04  1.80137800E-04
    1.60362000E-04  1.59128600E-04  1.71473900E-04  1.67191600E-04  1.47983400E-04  1.48564100E-04  1.53062100E-04  1.55991000E-04  1.51316700E-04  1.54574800E-04  1.57942700E-04  1.62211800E-04  1.58806600E-04  1.62888700E-04  1.66351400E-04  1.72965700E-04  1.68057900E-04  1.71791100E-04  1.81961100E-04  1.86937300E-04
    1.38480300E-04  1.37351400E-04  1.46060500E-04  1.44707800E-04  1.34607500E-04  1.33748100E-04  1.39668600E-04  1.37706700E-04  1.55122400E-04  1.55269100E-04  1.63850900E-04  1.63852600E-04  1.54542800E-04  1.51282600E-04  1.62159900E-04  1.57885600E-04  1.75006100E-04  1.75058100E-04  1.92267000E-04  1.92166200E-04
    1.72542100E-04  1.67439300E-04  1.86850200E-04  1.78697700E-04  1.48718400E-04  1.46535500E-04  1.54884900E-04  1.51242600E-04  1.45041400E-04  1.45867200E-04  1.50077400E-04  1.50900000E-04  1.61889400E-04  1.56500900E-04  1.70534600E-04  1.64232000E-04  1.55343200E-04  1.56921500E-04  1.61554300E-04  1.64539100E-04
    1.35998400E-04  1.36795200E-04  1.41110600E-04  1.42595100E-04  1.35947200E-04  1.33400600E-04  1.40519600E-04  1.36443800E-04  1.47962200E-04  1.48358800E-04  1.53230900E-04  1.54299100E-04  1.49350000E-04  1.49338700E-04  1.56282000E-04  1.56027200E-04  1.60503400E-04  1.63590700E-04  1.71204200E-04  1.76195800E-04
    1.65560100E-04  1.65071400E-04  1.80457700E-04  1.79175900E-04  1.48189000E-04  1.45732900E-04  1.54301400E-04  1.51170600E-04  1.42290900E-04  1.38613100E-04  1.46438700E-04  1.41420600E-04  1.62956500E-04  1.57822900E-04  1.74637700E-04  1.66856300E-04  1.51021500E-04  1.44216700E-04  1.56823000E-04  1.47238200E-04
    1.32619800E-04  1.32471300E-04  1.32821700E-04  1.32476100E-04  1.32471300E-04  1.32471300E-04  1.32471300E-04  1.32471300E-04  1.35406200E-04  1.33406200E-04  1.36853100E-04  1.33838300E-04  1.33064100E-04  1.32672900E-04  1.33338400E-04  1.32787900E-04  1.38165900E-04  1.34135000E-04  1.39263900E-04  1.34303300E-04
    1.33574400E-04  1.33014900E-04  1.33486100E-04  1.32824600E-04  1.32471300E-04  1.32471300E-04  1.32471300E-04  1.32471300E-04  1.32471300E-04  1.32471300E-04  1.32471300E-04  1.32471300E-04  1.32728200E-04  1.32471300E-04  1.32713100E-04  1.32749300E-04  1.32471300E-04  1.32471300E-04  1.32471300E-04  1.32471300E-04
    1.32471300E-04  1.32471300E-04  1.32471300E-04  1.32471300E-04  1.32471300E-04  1.32471300E-04  1.32471300E-04  1.32471300E-04  1.32471300E-04  1.32471300E-04  1.32471300E-04  1.32471300E-04  1.32471300E-04  1.32471300E-04  1.32471300E-04  1.32471300E-04  1.32471300E-04  1.32471300E-04  1.32471300E-04  1.32471300E-04
    1.32471300E-04  1.32471300E-04  1.32471300E-04  1.32471300E-04  1.32471300E-04  1.32471300E-04  1.32471300E-04  1.32471300E-04  1.32471300E-04  1.32471300E-04  1.32471300E-04  1.32471300E-04  1.32471300E-04  1.32471300E-04  1.32471300E-04  1.32471300E-04  1.32471300E-04  1.32471300E-04  1.32471300E-04  1.32471300E-04
    1.32471300E-04  1.32471300E-04  1.32471300E-04  1.32471300E-04  1.32471300E-04  1.32471300E-04  1.32471300E-04  1.32471300E-04  1.32471300E-04  1.32471300E-04  1.32916300E-04  1.32508600E-04  1.32486000E-04  1.32548400E-04  1.32228800E-04  1.32512900E-04  1.32454200E-04  1.32427500E-04  1.32471300E-04  1.32498400E-04
    1.32473600E-04  1.32434300E-04  1.32503100E-04  1.32469600E-04  1.32471300E-04  1.32460400E-04  1.32462800E-04  1.32471300E-04  1.32471300E-04  1.32471300E-04  1.32449300E-04  1.32470100E-04  1.32412000E-04  1.32449900E-04  1.32520800E-04  1.32474600E-04  1.32471300E-04  1.32513000E-04  1.32471300E-04  1.32471300E-04
    1.32420500E-04  1.32435900E-04  1.32440700E-04  1.32360900E-04  1.32349600E-04  1.32505900E-04  1.32671400E-04  1.32481800E-04  1.32471300E-04  1.32962400E-04  1.34024800E-04  1.32743900E-04  1.33869400E-04  1.32464500E-04  1.32471300E-04  1.32290800E-04  1.32316100E-04  1.32299900E-04  1.32534400E-04  1.32334500E-04
    1.32333700E-04  1.32989300E-04  1.34119800E-04  1.32707900E-04  1.33662900E-04  1.32376900E-04  1.32376300E-04  1.32348700E-04  1.32386800E-04  1.32451700E-04  1.33187500E-04  1.32427600E-04  1.32592600E-04  1.32322900E-04  1.32267300E-04  1.32246600E-04  1.32473500E-04  1.32602500E-04  1.32622800E-04  1.32741600E-04
    1.32986000E-04  1.32965900E-04  1.33292400E-04  1.32313600E-04  1.32496500E-04  1.32841200E-04  1.33267000E-04  1.32373300E-04  1.32415500E-04  1.32876500E-04  1.33021000E-04  1.32460200E-04  1.32502200E-04  1.33233900E-04  1.33784100E-04  1.33405900E-04  1.33693700E-04  1.34155500E-04  1.34528600E-04  1.34219300E-04
    1.35132900E-04  1.35211600E-04  1.36295600E-04  1.33405400E-04  1.34232800E-04  1.33823700E-04  1.34613700E-04  1.34582600E-04  1.35081200E-04  1.34882400E-04  1.35456400E-04  1.35882200E-04  1.37057400E-04  1.36272200E-04  1.37434400E-04  1.35072700E-04  1.35612400E-04  1.35141100E-04  1.35609400E-04  1.36394800E-04
    1.37435800E-04  1.36226100E-04  1.37091800E-04  1.35737200E-04  1.37870200E-04  1.36178900E-04  1.38984000E-04  1.39966600E-04  1.41771000E-04  1.42139100E-04  1.44920300E-04  1.35442300E-04  1.37060700E-04  1.35231600E-04  1.37107900E-04  1.38857000E-04  1.40857300E-04  1.39276900E-04  1.41605700E-04  1.34808800E-04
    1.37092400E-04  1.34347300E-04  1.37101700E-04  1.39678100E-04  1.42374200E-04  1.40111400E-04  1.43220700E-04  1.42871700E-04  1.44829000E-04  1.43991800E-04  1.46350200E-04  1.46724100E-04  1.48604300E-04  1.48669100E-04  1.50868400E-04  1.45136300E-04  1.47923100E-04  1.46386000E-04  1.49611500E-04  1.50682200E-04
    1.53356300E-04  1.52838100E-04  1.56040300E-04  1.43079400E-04  1.43684600E-04  1.47043300E-04  1.48466800E-04  1.42837200E-04  1.42644300E-04  1.47649700E-04  1.46065700E-04  1.50182600E-04  1.51466800E-04  1.52873900E-04  1.55111100E-04  1.52712400E-04  1.53196000E-04  1.56834600E-04  1.57144100E-04  1.55874200E-04
    1.58718500E-04  1.59158900E-04  1.62755200E-04  1.60609900E-04  1.62273800E-04  1.65366900E-04  1.67454500E-04  1.52966700E-04  1.52094300E-04  1.57192800E-04  1.56433500E-04  1.50470200E-04  1.48765000E-04  1.54731000E-04  1.52238600E-04  1.62327600E-04  1.61871200E-04  1.69014600E-04  1.68684000E-04  1.60233600E-04
    1.57491900E-04  1.67381100E-04  1.64350000E-04  1.34088100E-04  1.37342800E-04  1.35246200E-04  1.37821900E-04  1.40712900E-04  1.44197500E-04  1.41231500E-04  1.44895000E-04  1.36669900E-04  1.38866800E-04  1.37792600E-04  1.39891100E-04  1.41577300E-04  1.45299600E-04  1.42434300E-04  1.45277700E-04  1.47740100E-04
    1.51390600E-04  1.48829600E-04  1.53054600E-04  1.55092300E-04  1.58860700E-04  1.57219000E-04  1.61674400E-04  1.49474700E-04  1.54027900E-04  1.49554000E-04  1.54392400E-04  1.59049000E-04  1.64979900E-04  1.59926900E-04  1.66779900E-04  1.38660700E-04  1.40692600E-04  1.38968200E-04  1.40927800E-04  1.43178100E-04
    1.46095300E-04  1.43323900E-04  1.46204900E-04  1.38828500E-04  1.40643300E-04  1.38241400E-04  1.39792700E-04  1.42888200E-04  1.45649100E-04  1.41807500E-04  1.44502400E-04  1.49410100E-04  1.52834600E-04  1.55495600E-04  1.52368400E-04  1.55043300E-04  1.49658500E-04  1.52453600E-04  1.54396400E-04  1.52485700E-04
    1.54545500E-04  1.58338900E-04  1.61477900E-04  1.57970300E-04  1.61176800E-04  1.65312400E-04  1.69074200E-04  1.64992200E-04  1.68921800E-04  1.57338500E-04  1.60583400E-04  1.56633200E-04  1.59929100E-04  1.64536500E-04  1.68433400E-04  1.63598700E-04  1.67679600E-04  1.49085500E-04  1.52240400E-04  1.54401400E-04
    1.51890600E-04  1.54058100E-04  1.47757200E-04  1.51113000E-04  1.53296900E-04  1.50017700E-04  1.52194400E-04  1.56722200E-04  1.59221400E-04  1.56405400E-04  1.58934100E-04  1.62272300E-04  1.66362300E-04  1.61861400E-04  1.64877500E-04  1.55724100E-04  1.58382500E-04  1.54581500E-04  1.57249500E-04  1.61315300E-04
    1.64540800E-04  1.60229500E-04  1.63556000E-04  1.63345700E-04  1.67132200E-04  1.66963600E-04  1.71716100E-04  1.70706600E-04  1.73846800E-04  1.76495800E-04  1.81072000E-04  1.70448500E-04  1.76276300E-04  1.73365400E-04  1.80459900E-04  1.82508700E-04  1.88968600E-04  1.88354600E-04  1.97119100E-04  1.76494600E-04
    1.77582400E-04  1.85064800E-04  1.87913000E-04  1.76653700E-04  1.73994900E-04  1.88787800E-04  1.89318100E-04  1.95285400E-04  2.00525800E-04  2.06539300E-04  2.15628200E-04  2.05994300E-04  2.10722100E-04  2.26651700E-04  2.36585200E-04  1.72974900E-04  1.76730100E-04  1.73156000E-04  1.77543800E-04  1.80797600E-04
    1.85136900E-04  1.81848900E-04  1.86620800E-04  1.72901100E-04  1.77734000E-04  1.72212200E-04  1.77199300E-04  1.82518300E-04  1.87491500E-04  1.82669600E-04  1.87953100E-04  1.89754300E-04  1.94796900E-04  1.91629900E-04  1.97255700E-04  2.00169000E-04  2.06025200E-04  2.03482600E-04  2.10288300E-04  1.93141200E-04
    1.99350800E-04  1.94044300E-04  2.00847100E-04  2.06381800E-04  2.14229400E-04  2.08723600E-04  2.17709000E-04  1.70956400E-04  1.76148000E-04  1.69232900E-04  1.74417400E-04  1.81884800E-04  1.87822300E-04  1.80355600E-04  1.87009900E-04  1.68048800E-04  1.72163300E-04  1.67266400E-04  1.71396600E-04  1.78014300E-04
    1.84789700E-04  1.75950800E-04  1.81705100E-04  1.94182500E-04  2.01600000E-04  1.93513300E-04  2.01470800E-04  2.10368800E-04  2.20601300E-04  2.11216900E-04  2.22840000E-04  1.91923100E-04  2.00357800E-04  1.89439100E-04  1.98326100E-04  2.11293000E-04  2.24299700E-04  2.10262100E-04  2.22982200E-04  2.12193700E-04
    2.18557300E-04  2.17601900E-04  2.25302700E-04  2.24956100E-04  2.32177000E-04  2.33218200E-04  2.42010900E-04  2.22827300E-04  2.32052400E-04  2.27734800E-04  2.38674100E-04  2.41724800E-04  2.52089100E-04  2.50347400E-04  2.62509300E-04  2.40034100E-04  2.47831600E-04  2.51684200E-04  2.61426200E-04  2.55389800E-04
    2.62538600E-04  2.71004100E-04  2.80182200E-04  2.63843100E-04  2.75833700E-04  2.76429900E-04  2.91021500E-04  2.87753900E-04  2.99264400E-04  3.05679100E-04  3.19903300E-04  2.32201400E-04  2.45031900E-04  2.36156800E-04  2.50939200E-04  2.58928200E-04  2.73672700E-04  2.67109800E-04  2.84723500E-04  2.38696900E-04
    2.54112500E-04  2.37283300E-04  2.53420800E-04  2.71460600E-04  2.91034500E-04  2.71744700E-04  2.92703900E-04  2.89317300E-04  3.06905800E-04  3.03405400E-04  3.23274900E-04  3.24794200E-04  3.42248300E-04  3.44995200E-04  3.66429000E-04  3.13139000E-04  3.37979400E-04  3.16864500E-04  3.44912400E-04  3.65820000E-04
    3.92337800E-04  3.77552100E-04  4.14820400E-04  1.43382300E-04  1.48167900E-04  1.43570600E-04  1.47383000E-04  1.58694600E-04  1.72507500E-04  1.60603600E-04  1.81991100E-04  1.46265100E-04  1.43605400E-04  1.48844300E-04  1.45136900E-04  1.44092800E-04  1.46972800E-04  1.42735400E-04  1.44835100E-04  1.53090500E-04
    1.47623100E-04  1.59623400E-04  1.52793100E-04  1.42318700E-04  1.41429200E-04  1.44454700E-04  1.37485100E-04  1.55260000E-04  1.66112300E-04  1.53468700E-04  1.68284800E-04  1.82867100E-04  2.01559800E-04  1.89242100E-04  2.12596700E-04  1.50094500E-04  1.70622600E-04  1.47477600E-04  1.76061100E-04  1.96947100E-04
    2.25471600E-04  2.09523400E-04  2.45037200E-04  1.87719400E-04  2.02432900E-04  2.07190000E-04  2.30094500E-04  2.10849300E-04  2.11689500E-04  2.44064400E-04  2.45023400E-04  2.18336100E-04  2.36180100E-04  2.33953300E-04  2.56278600E-04  2.52524400E-04  2.66246000E-04  2.76775400E-04  2.94108600E-04  2.56433000E-04
    2.81889400E-04  2.79926100E-04  3.14372000E-04  3.07527600E-04  3.29419200E-04  3.46136000E-04  3.74472300E-04  2.76281100E-04  2.82344600E-04  3.06995200E-04  3.14954900E-04  2.82928700E-04  2.79516000E-04  3.17115500E-04  3.12121300E-04  3.46020200E-04  3.56585400E-04  3.95932000E-04  4.10129200E-04  3.59968300E-04
    3.54314500E-04  4.16032900E-04  4.16846700E-04  1.69372500E-04  1.63008100E-04  1.88223300E-04  1.84056100E-04  1.53802300E-04  1.40997400E-04  1.77340600E-04  1.72666800E-04  2.12875100E-04  2.13227000E-04  2.44948900E-04  2.50268400E-04  2.11572300E-04  2.17856900E-04  2.55685300E-04  2.70696800E-04  1.51195200E-04
    1.89055200E-04  1.88096600E-04  2.22686000E-04  2.30126200E-04  2.72961200E-04  2.66579800E-04  3.14259700E-04  2.38046700E-04  2.72170400E-04  2.96033900E-04  3.32086400E-04  3.17509200E-04  3.69639500E-04  3.78714000E-04  4.37516300E-04  2.69145400E-04  2.75144700E-04  2.88763700E-04  2.96640000E-04  2.80454500E-04
    2.85359400E-04  3.04243600E-04  3.10252500E-04  3.10058000E-04  3.19948000E-04  3.33191300E-04  3.45208700E-04  3.29379000E-04  3.37616900E-04  3.56393600E-04  3.66122300E-04  2.89969300E-04  2.97783700E-04  3.16537500E-04  3.25488800E-04  3.07468800E-04  3.19864500E-04  3.36621500E-04  3.50017300E-04  3.44855100E-04
    3.54316900E-04  3.75392100E-04  3.84568200E-04  3.66718900E-04  3.80804800E-04  3.97185800E-04  4.11899400E-04  3.58406100E-04  3.72627800E-04  3.86045800E-04  4.02484400E-04  3.85323600E-04  3.96186000E-04  4.16123700E-04  4.27449500E-04  4.16558100E-04  4.35084300E-04  4.50303700E-04  4.69794400E-04  4.47528100E-04
    4.54216400E-04  4.71532000E-04  4.68312500E-04  4.06537900E-04  4.17124000E-04  4.36985900E-04  4.46069200E-04  4.27642100E-04  4.43330300E-04  4.56176200E-04  4.69131600E-04  4.58453000E-04  4.64496400E-04  4.67406500E-04  4.71309900E-04  4.73238600E-04  4.87314900E-04  4.80362700E-04  4.95707600E-04  3.34549600E-04
    3.51392600E-04  3.66132500E-04  3.84305100E-04  3.71231800E-04  3.94669700E-04  4.06693500E-04  4.30038200E-04  3.98156300E-04  4.17927700E-04  4.32189400E-04  4.53225800E-04  4.41401000E-04  4.66223100E-04  4.76271200E-04  5.02809000E-04  4.19833600E-04  4.48020800E-04  4.56610000E-04  4.86451900E-04  4.79193300E-04
    5.13315500E-04  5.19632500E-04  5.56240500E-04  4.94436700E-04  5.26155000E-04  5.32884500E-04  5.66661500E-04  5.61567500E-04  6.00926000E-04  6.04474000E-04  6.46795000E-04  4.63522900E-04  4.85754900E-04  4.89645400E-04  5.15205500E-04  5.10880000E-04  5.39377500E-04  5.44714500E-04  5.75497500E-04  5.06411000E-04
    5.32940000E-04  5.16676000E-04  5.45143500E-04  5.70898000E-04  6.09833000E-04  5.82080500E-04  6.31821000E-04  5.71527500E-04  6.07484500E-04  6.09953500E-04  6.48122000E-04  6.47765000E-04  6.93163000E-04  6.90778500E-04  7.39231500E-04  6.47773000E-04  6.88057000E-04  6.84555500E-04  7.26666000E-04  7.32739000E-04
    7.82380000E-04  7.64345500E-04  8.00908000E-04  3.15542300E-04  3.57485100E-04  3.62918400E-04  4.13260500E-04  3.96742700E-04  4.31423400E-04  4.61506000E-04  5.05317000E-04  4.27180100E-04  4.84279300E-04  5.00882000E-04  5.72276500E-04  5.43427500E-04  5.99313000E-04  6.46061500E-04  7.18224000E-04  4.59283900E-04
    4.78450500E-04  5.41677000E-04  5.68417500E-04  4.90789400E-04  4.90241800E-04  5.83146500E-04  5.88085000E-04  6.47842500E-04  6.85339500E-04  7.83301500E-04  8.36117500E-04  7.12110000E-04  7.23101000E-04  8.77207500E-04  8.99252000E-04  5.50332000E-04  5.87089500E-04  5.96348500E-04  6.39955000E-04  6.28721500E-04
    6.71418000E-04  6.83077500E-04  7.30826000E-04  6.44483000E-04  6.92403500E-04  6.94125500E-04  7.46863500E-04  7.44114000E-04  7.94243500E-04  8.03667500E-04  8.64900000E-04  7.15462500E-04  7.60156000E-04  7.80762000E-04  8.32063000E-04  8.04650500E-04  8.47961000E-04  8.83643500E-04  9.34195500E-04  8.51297000E-04
    9.10707000E-04  9.26706000E-04  9.96145000E-04  9.71062000E-04       0.00103055       0.00106752       0.00113826  7.44521000E-04  8.01866000E-04  7.94619000E-04  8.55405500E-04  8.64345500E-04  9.34063500E-04  9.21894500E-04  9.99588500E-04  8.29271500E-04  8.86570000E-04  8.47716000E-04  9.06586500E-04  9.56356500E-04
         0.00104089  9.79483000E-04       0.00106885       0.00101051       0.00108810       0.00108965       0.00118997       0.00117350       0.00125875       0.00128887       0.00139346       0.00114231       0.00126339       0.00117791       0.00131068       0.00140354       0.00154273       0.00147622       0.00167492  8.89068000E-04
    9.26964500E-04  9.82355000E-04       0.00102686  9.61074500E-04  9.91325000E-04       0.00106702       0.00110231       0.00108725       0.00113944       0.00120541       0.00126646       0.00118632       0.00122759       0.00132040       0.00136755       0.00101853       0.00104151       0.00113442       0.00116238       0.00105711
         0.00107084       0.00118616       0.00120559       0.00126411       0.00129749       0.00140916       0.00144713       0.00132721       0.00135322       0.00148757       0.00152135       0.00133902       0.00141011       0.00149098       0.00157316       0.00147075       0.00152263       0.00163845       0.00169215       0.00166505
         0.00175881       0.00186537       0.00196840       0.00182276       0.00188213       0.00201880       0.00205039       0.00156884       0.00161625       0.00174467       0.00179282       0.00165822       0.00170178       0.00184301       0.00189640       0.00192899       0.00197846       0.00208428       0.00213218       0.00203446
         0.00209651       0.00219452       0.00227167  2.04170800E-04  1.92123900E-04  2.33379600E-04  2.12935700E-04  1.80144900E-04  1.71395800E-04  1.89420600E-04  1.72052200E-04  2.71387400E-04  2.60547900E-04  3.04093800E-04  2.88266500E-04  2.44744700E-04  2.26148500E-04  2.68148700E-04  2.44447800E-04  3.44421100E-04
    3.25685700E-04  4.02481200E-04  3.81256100E-04  3.00816200E-04  2.70401300E-04  3.49987400E-04  3.13198000E-04  2.06540800E-04  1.89698100E-04  2.19478300E-04  1.95231500E-04  1.74650400E-04  1.66686800E-04  1.74945800E-04  1.63168000E-04  2.35538500E-04  2.03855600E-04  2.70988800E-04  2.25684600E-04  1.76076300E-04
    1.57476800E-04  1.82074300E-04  1.50914100E-04  1.70312200E-04  1.81588800E-04  1.71618400E-04  1.90361800E-04  1.96158100E-04  2.07430500E-04  2.15030800E-04  2.39017200E-04  1.66038400E-04  1.75724200E-04  1.62193000E-04  1.74919100E-04  1.90314100E-04  2.06450600E-04  1.93504100E-04  2.15948300E-04  1.56629200E-04
    1.74458800E-04  1.50234700E-04  1.82741700E-04  2.03338700E-04  2.37762000E-04  2.25743300E-04  2.70413500E-04  2.26625100E-04  2.45912800E-04  2.45564600E-04  2.72327500E-04  2.64174700E-04  2.79820600E-04  2.95940000E-04  3.15496100E-04  2.74821900E-04  3.08236100E-04  3.14135200E-04  3.54753800E-04  3.37593100E-04
    3.61853200E-04  3.90293900E-04  4.22466800E-04  4.78818400E-04  4.55595100E-04  5.83295500E-04  5.59316000E-04  4.21279600E-04  3.77460300E-04  5.21393500E-04  4.71327900E-04  7.20934000E-04  6.98939500E-04  9.07360500E-04  8.91594000E-04  6.59670000E-04  6.05179000E-04  8.53975000E-04  7.96811500E-04  3.26151200E-04
    2.70484900E-04  4.11844500E-04  3.47743600E-04  2.13242900E-04  1.59142400E-04  2.82292900E-04  2.36049400E-04  5.40718000E-04  4.68488600E-04  7.26192500E-04  6.49900000E-04  4.07410000E-04  3.68765000E-04  5.92177500E-04  5.55454500E-04       0.00108274       0.00108572       0.00121964       0.00122806       0.00108257
         0.00107278       0.00122982       0.00122393       0.00137451       0.00139039       0.00154821       0.00157438       0.00139920       0.00139908       0.00159340       0.00160190       0.00105611       0.00103272       0.00120974       0.00118720       0.00100340  9.69232500E-04       0.00115727       0.00112145       0.00138853
         0.00136707       0.00159677       0.00157647       0.00133589       0.00129722       0.00154254       0.00149865       0.00174476       0.00178087       0.00195355       0.00201301       0.00181481       0.00183663       0.00206446       0.00210757       0.00216729       0.00224689       0.00236431       0.00247322       0.00233555
         0.00241683       0.00259928       0.00273855       0.00183986       0.00182052       0.00212482       0.00210570       0.00178074       0.00172727       0.00205364       0.00198291       0.00246056       0.00243962       0.00285671       0.00282749       0.00236352       0.00228483       0.00272213       0.00260962  9.31661000E-04
    8.92178500E-04       0.00108175       0.00104020  8.50938500E-04  8.16546000E-04  9.98539500E-04  9.65991500E-04       0.00125405       0.00120929       0.00144956       0.00139961       0.00116528       0.00113042       0.00135910       0.00131534  7.89876500E-04  7.63996000E-04  9.34410500E-04  9.08019000E-04  7.43557000E-04
    7.32156000E-04  8.87153500E-04  8.73821000E-04       0.00109762       0.00107076       0.00127923       0.00125228       0.00104967       0.00103383       0.00123163       0.00121358       0.00166818       0.00161863       0.00192141       0.00185328       0.00156406       0.00151677       0.00179697       0.00174618       0.00220544
         0.00213234       0.00250803       0.00242118       0.00206801       0.00201276       0.00234848       0.00228866       0.00147980       0.00145163       0.00170134       0.00167156       0.00143361       0.00141526       0.00165117       0.00163845       0.00196966       0.00192855       0.00223875       0.00220116       0.00189475
         0.00188230       0.00217506       0.00215753  1.57998700E-04  2.09981300E-04  2.33668000E-04  2.73479800E-04  2.64986900E-04  3.19871900E-04  3.32205600E-04  3.94793400E-04  3.64051500E-04  3.91837300E-04  5.46079500E-04  5.64026500E-04  4.40048700E-04  5.02455500E-04  6.02293000E-04  6.54795500E-04  3.72545200E-04
    4.21178600E-04  4.55180200E-04  5.11253500E-04  4.63877700E-04  4.99327600E-04  5.61155500E-04  6.03429000E-04  5.69619000E-04  6.29267500E-04  7.21709500E-04  7.86706000E-04  6.85766500E-04  7.35534500E-04  8.49256000E-04  9.07563500E-04  7.25193500E-04  7.21582500E-04  8.64950500E-04  8.58395000E-04  7.26112500E-04
    7.35824000E-04  8.58801500E-04  8.63741000E-04       0.00102289       0.00101361       0.00120074       0.00118821       0.00100849       0.00100725       0.00117597       0.00116653  7.49894500E-04  7.67862000E-04  8.73071500E-04  8.86699000E-04  7.85674500E-04  8.16399000E-04  9.04494000E-04  9.29608500E-04       0.00101036
         0.00101826       0.00116138       0.00116178       0.00103234       0.00105339       0.00117422       0.00119315       0.00140031       0.00138516       0.00162414       0.00160188       0.00136188       0.00134126       0.00157144       0.00152997       0.00187452       0.00184310       0.00215311       0.00211108       0.00179327
         0.00175796       0.00206173       0.00203119       0.00132506       0.00131817       0.00150395       0.00149627       0.00132438       0.00133641       0.00149564       0.00149643       0.00173771       0.00172432       0.00200496       0.00197769       0.00171383       0.00170582       0.00195834       0.00194166  8.49215500E-04
    8.81495000E-04  9.59267000E-04  9.90372500E-04  9.14294500E-04  9.47455500E-04       0.00102285       0.00105650       0.00108005       0.00110935       0.00121044       0.00123735       0.00114115       0.00117515       0.00126824       0.00130258  9.80770000E-04       0.00101401       0.00109108       0.00112635       0.00104692