# File generated by Flopy version 3.3.5 on 05/20/2022 at 18:57:19.
BEGIN options
  READASARRAYS
  SAVE_FLOWS
END options

BEGIN period  1
  recharge
    INTERNAL  FACTOR  1.0
    3.04721700E-09  3.04721700E-09  3.04721700E-09  3.04721700E-09  3.04721700E-09  3.04721700E-09  3.04721700E-09  3.04721700E-09  3.04721700E-09  3.04721700E-09  3.04721700E-09  3.04721700E-09  3.04721700E-09  3.04721700E-09  3.04721700E-09  3.04721700E-09  3.04721700E-09  3.04721700E-09  3.04721700E-09  3.04721700E-09
    3.04721700E-09  3.04721700E-09  3.04721700E-09  3.04721700E-09  3.04721700E-09  3.04721700E-09  3.04721700E-09  3.04721700E-09  3.04721700E-09  3.04721700E-09  3.04721700E-09  3.04721700E-09  3.04721700E-09  3.04721700E-09  3.04721700E-09  3.04721700E-09  3.04721700E-09  3.04721700E-09  3.04721700E-09  3.04721700E-09
    3.04721700E-09  3.04721700E-09  3.04721700E-09  3.04721700E-09  3.04721700E-09  3.04721700E-09  3.04721700E-09  3.04721700E-09  3.04721700E-09  3.04721700E-09  3.04721700E-09  3.04721700E-09  3.04721700E-09  3.04721700E-09  3.04721700E-09  3.04721700E-09  3.04721700E-09  3.04721700E-09  3.04721700E-09  3.04721700E-09
    3.04721700E-09  3.04721700E-09  3.04721700E-09  3.04721700E-09  3.04721700E-09  3.04721700E-09  3.04721700E-09  3.04721700E-09  3.04721700E-09  3.04721700E-09  3.04721700E-09  3.04721700E-09  3.04721700E-09  3.04721700E-09  3.04721700E-09  3.04721700E-09  3.04721700E-09  3.04721700E-09  3.04721700E-09  3.04721700E-09
    3.04721700E-09  3.04721700E-09  3.04721700E-09  3.04721700E-09  3.04721700E-09  3.04721700E-09  3.04721700E-09  3.04721700E-09  3.04721700E-09  3.04721700E-09  3.04721700E-09  3.04721700E-09  3.04721700E-09  3.04721700E-09  3.04721700E-09  3.04721700E-09  3.04721700E-09  3.04721700E-09  3.04721700E-09  3.04721700E-09
    3.04721700E-09  3.04721700E-09  3.04721700E-09  3.04721700E-09  3.04721700E-09  3.04721700E-09  3.04721700E-09  3.04721700E-09  3.04721700E-09  3.04721700E-09  3.04721700E-09  3.04721700E-09  3.04721700E-09  3.04721700E-09  3.04721700E-09  3.04721700E-09  3.04721700E-09  3.04721700E-09  3.04721700E-09  3.04721700E-09
    3.04721700E-09  3.04721700E-09  3.04721700E-09  3.04721700E-09  3.04721700E-09  3.04721700E-09  3.04721700E-09  3.04721700E-09  3.04721700E-09  3.04721700E-09  3.04721700E-09  3.04721700E-09  3.04721700E-09  3.04721700E-09  3.04721700E-09  3.04721700E-09  3.04721700E-09  3.04721700E-09  3.04721700E-09  3.04721700E-09
    3.04721700E-09  3.04721700E-09  3.04721700E-09  3.04721700E-09  3.04721700E-09  3.04721700E-09  3.04721700E-09  3.04721700E-09  3.04721700E-09  3.04721700E-09  3.04721700E-09  3.04721700E-09  3.04721700E-09  3.04721700E-09  3.04721700E-09  3.04721700E-09  3.04721700E-09  3.04721700E-09  3.04721700E-09  3.04721700E-09
    3.04721700E-09  3.04721700E-09  3.04721700E-09  3.04721700E-09  3.04721700E-09  3.04721700E-09  3.04721700E-09  3.04721700E-09  3.04721700E-09  3.04721700E-09  3.04721700E-09  3.04721700E-09  3.04721700E-09  3.04721700E-09  3.04721700E-09  3.04721700E-09  3.04721700E-09  3.04721700E-09  3.04721700E-09  3.04721700E-09
    3.04721700E-09  3.04721700E-09  3.04721700E-09  3.04721700E-09  3.04721700E-09  3.04721700E-09  3.04721700E-09  3.04721700E-09  3.04721700E-09  3.04721700E-09  3.04721700E-09  3.04721700E-09  3.04721700E-09  3.04721700E-09  3.04721700E-09  3.04721700E-09  3.04721700E-09  3.04721700E-09  3.04721700E-09  3.04721700E-09
    3.04721700E-09  3.04721700E-09  3.04721700E-09  3.04721700E-09  3.04721700E-09  3.04721700E-09  3.04721700E-09  3.04721700E-09  3.04721700E-09  3.04721700E-09  3.04721700E-09  3.04721700E-09  3.04721700E-09  3.04721700E-09  3.04721700E-09  3.04721700E-09  3.04721700E-09  3.04721700E-09  3.04721700E-09  3.04721700E-09
    3.04721700E-09  3.04721700E-09  3.04721700E-09  3.04721700E-09  3.04721700E-09  3.04721700E-09  3.04721700E-09  3.04721700E-09  3.04721700E-09  3.04721700E-09  3.04721700E-09  3.04721700E-09  3.04721700E-09  3.04721700E-09  3.04721700E-09  3.04721700E-09  3.04721700E-09  3.04721700E-09  3.04721700E-09  3.04721700E-09
    3.04721700E-09  3.04721700E-09  3.04721700E-09  3.04721700E-09  3.04721700E-09  3.04721700E-09  3.04721700E-09  3.04721700E-09  3.04721700E-09  3.04721700E-09  3.04721700E-09  3.04721700E-09  3.04721700E-09  3.04721700E-09  3.04721700E-09  3.04721700E-09  3.04721700E-09  3.04721700E-09  3.04721700E-09  3.04721700E-09
    3.04721700E-09  3.04721700E-09  3.04721700E-09  3.04721700E-09  3.04721700E-09  3.04721700E-09  3.04721700E-09  3.04721700E-09  3.04721700E-09  3.04721700E-09  3.04721700E-09  3.04721700E-09  3.04721700E-09  3.04721700E-09  3.04721700E-09  3.04721700E-09  3.04721700E-09  3.04721700E-09  3.04721700E-09  3.04721700E-09
    3.04721700E-09  3.04721700E-09  3.04721700E-09  3.04721700E-09  3.04721700E-09  3.04721700E-09  3.04721700E-09  3.04721700E-09  3.04721700E-09  3.04721700E-09  3.04721700E-09  3.04721700E-09  3.04721700E-09  3.04721700E-09  3.04721700E-09  3.04721700E-09  3.04721700E-09  3.04721700E-09  3.04721700E-09  3.04721700E-09
    3.04721700E-09  3.04721700E-09  3.04721700E-09  3.04721700E-09  3.04721700E-09  3.04721700E-09  3.04721700E-09  3.04721700E-09  3.04721700E-09  3.04721700E-09  3.04721700E-09  3.04721700E-09  3.04721700E-09  3.04721700E-09  3.04721700E-09  3.04721700E-09  3.04721700E-09  3.04721700E-09  3.04721700E-09  3.04721700E-09
    3.04721700E-09  3.04721700E-09  3.04721700E-09  3.04721700E-09  3.04721700E-09  3.04721700E-09  3.04721700E-09  3.04721700E-09  3.04721700E-09  3.04721700E-09  3.04721700E-09  3.04721700E-09  3.04721700E-09  3.04721700E-09  3.04721700E-09  3.04721700E-09  3.04721700E-09  3.04721700E-09  3.04721700E-09  3.04721700E-09
    3.04721700E-09  3.04721700E-09  3.04721700E-09  3.04721700E-09  3.04721700E-09  3.04721700E-09  3.04721700E-09  3.04721700E-09  3.04721700E-09  3.04721700E-09  3.04721700E-09  3.04721700E-09  3.04721700E-09  3.04721700E-09  3.04721700E-09  3.04721700E-09  3.04721700E-09  3.04721700E-09  3.04721700E-09  3.04721700E-09
    3.04721700E-09  3.04721700E-09  3.04721700E-09  3.04721700E-09  3.04721700E-09  3.04721700E-09  3.04721700E-09  3.04721700E-09  3.04721700E-09  3.04721700E-09  3.04721700E-09  3.04721700E-09  3.04721700E-09  3.04721700E-09  3.04721700E-09  3.04721700E-09  3.04721700E-09  3.04721700E-09  3.04721700E-09  3.04721700E-09
    3.04721700E-09  3.04721700E-09  3.04721700E-09  3.04721700E-09  3.04721700E-09  3.04721700E-09  3.04721700E-09  3.04721700E-09  3.04721700E-09  3.04721700E-09  3.04721700E-09  3.04721700E-09  3.04721700E-09  3.04721700E-09  3.04721700E-09  3.04721700E-09  3.04721700E-09  3.04721700E-09  3.04721700E-09  3.04721700E-09
    3.04721700E-09  3.04721700E-09  3.04721700E-09  3.04721700E-09  3.04721700E-09  3.04721700E-09  3.04721700E-09  3.04721700E-09  3.04721700E-09  3.04721700E-09  3.04721700E-09  3.04721700E-09  3.04721700E-09  3.04721700E-09  3.04721700E-09  3.04721700E-09  3.04721700E-09  3.04721700E-09  3.04721700E-09  3.04721700E-09
    3.04721700E-09  3.04721700E-09  3.04721700E-09  3.04721700E-09  3.04721700E-09  3.04721700E-09  3.04721700E-09  3.04721700E-09  3.04721700E-09  3.04721700E-09  3.04721700E-09  3.04721700E-09  3.04721700E-09  3.04721700E-09  3.04721700E-09  3.04721700E-09  3.04721700E-09  3.04721700E-09  3.04721700E-09  3.04721700E-09
    3.04721700E-09  3.04721700E-09  3.04721700E-09  3.04721700E-09  3.04721700E-09  3.04721700E-09  3.04721700E-09  3.04721700E-09  3.04721700E-09  3.04721700E-09  3.04721700E-09  3.04721700E-09  3.04721700E-09  3.04721700E-09  3.04721700E-09  3.04721700E-09  3.04721700E-09  3.04721700E-09  3.04721700E-09  3.04721700E-09
    3.04721700E-09  3.04721700E-09  3.04721700E-09  3.04721700E-09  3.04721700E-09  3.04721700E-09  3.04721700E-09  3.04721700E-09  3.04721700E-09  3.04721700E-09  3.04721700E-09  3.04721700E-09  3.04721700E-09  3.04721700E-09  3.04721700E-09  3.04721700E-09  3.04721700E-09  3.04721700E-09  3.04721700E-09  3.04721700E-09
    3.04721700E-09  3.04721700E-09  3.04721700E-09  3.04721700E-09  3.04721700E-09  3.04721700E-09  3.04721700E-09  3.04721700E-09  3.04721700E-09  3.04721700E-09  3.04721700E-09  3.04721700E-09  3.04721700E-09  3.04721700E-09  3.04721700E-09  3.04721700E-09  3.04721700E-09  3.04721700E-09  3.04721700E-09  3.04721700E-09
    3.04721700E-09  3.04721700E-09  3.04721700E-09  3.04721700E-09  3.04721700E-09  3.04721700E-09  3.04721700E-09  3.04721700E-09  3.04721700E-09  3.04721700E-09  3.04721700E-09  3.04721700E-09  3.04721700E-09  3.04721700E-09  3.04721700E-09  3.04721700E-09  3.04721700E-09  3.04721700E-09  3.04721700E-09  3.04721700E-09
    3.04721700E-09  3.04721700E-09  3.04721700E-09  3.04721700E-09  3.04721700E-09  3.04721700E-09  3.04721700E-09  3.04721700E-09  3.04721700E-09  3.04721700E-09  3.04721700E-09  3.04721700E-09  3.04721700E-09  3.04721700E-09  3.04721700E-09  3.04721700E-09  3.04721700E-09  3.04721700E-09  3.04721700E-09  3.04721700E-09
    3.04721700E-09  3.04721700E-09  3.04721700E-09  3.04721700E-09  3.04721700E-09  3.04721700E-09  3.04721700E-09  3.04721700E-09  3.04721700E-09  3.04721700E-09  3.04721700E-09  3.04721700E-09  3.04721700E-09  3.04721700E-09  3.04721700E-09  3.04721700E-09  3.04721700E-09  3.04721700E-09  3.04721700E-09  3.04721700E-09
    3.04721700E-09  3.04721700E-09  3.04721700E-09  3.04721700E-09  3.04721700E-09  3.04721700E-09  3.04721700E-09  3.04721700E-09  3.04721700E-09  3.04721700E-09  3.04721700E-09  3.04721700E-09  3.04721700E-09  3.04721700E-09  3.04721700E-09  3.04721700E-09  3.04721700E-09  3.04721700E-09  3.04721700E-09  3.04721700E-09
    3.04721700E-09  3.04721700E-09  3.04721700E-09  3.04721700E-09  3.04721700E-09  3.04721700E-09  3.04721700E-09  3.04721700E-09  3.04721700E-09  3.04721700E-09  3.04721700E-09  3.04721700E-09  3.04721700E-09  3.04721700E-09  3.04721700E-09  3.04721700E-09  3.04721700E-09  3.04721700E-09  3.04721700E-09  3.04721700E-09
    3.04721700E-09  3.04721700E-09  3.04721700E-09  3.04721700E-09  3.04721700E-09  3.04721700E-09  3.04721700E-09  3.04721700E-09  3.04721700E-09  3.04721700E-09  3.04721700E-09  3.04721700E-09  3.04721700E-09  3.04721700E-09  3.04721700E-09  3.04721700E-09  3.04721700E-09  3.04721700E-09  3.04721700E-09  3.04721700E-09
    3.04721700E-09  3.04721700E-09  3.04721700E-09  3.04721700E-09  3.04721700E-09  3.04721700E-09  3.04721700E-09  3.04721700E-09  3.04721700E-09  3.04721700E-09  3.04721700E-09  3.04721700E-09  3.04721700E-09  3.04721700E-09  3.04721700E-09  3.04721700E-09  3.04721700E-09  3.04721700E-09  3.04721700E-09  3.04721700E-09
    3.04721700E-09  3.04721700E-09  3.04721700E-09  3.04721700E-09  3.04721700E-09  3.04721700E-09  3.04721700E-09  3.04721700E-09  3.04721700E-09  3.04721700E-09  3.04721700E-09  3.04721700E-09  3.04721700E-09  3.04721700E-09  3.04721700E-09  3.04721700E-09  3.04721700E-09  3.04721700E-09  3.04721700E-09  3.04721700E-09
    3.04721700E-09  3.04721700E-09  3.04721700E-09  3.04721700E-09  3.04721700E-09  3.04721700E-09  3.04721700E-09  3.04721700E-09  3.04721700E-09  3.04721700E-09  3.04721700E-09  3.04721700E-09  3.04721700E-09  3.04721700E-09  3.04721700E-09  3.04721700E-09  3.04721700E-09  3.04721700E-09  3.04721700E-09  3.04721700E-09
    3.04721700E-09  3.04721700E-09  3.04721700E-09  3.04721700E-09  3.04721700E-09  3.04721700E-09  3.04721700E-09  3.04721700E-09  3.04721700E-09  3.04721700E-09  3.04721700E-09  3.04721700E-09  3.04721700E-09  3.04721700E-09  3.04721700E-09  3.04721700E-09  3.04721700E-09  3.04721700E-09  3.04721700E-09  3.04721700E-09
    3.04721700E-09  3.04721700E-09  3.04721700E-09  3.04721700E-09  3.04721700E-09  3.04721700E-09  3.04721700E-09  3.04721700E-09  3.04721700E-09  3.04721700E-09  3.04721700E-09  3.04721700E-09  3.04721700E-09  3.04721700E-09  3.04721700E-09  3.04721700E-09  3.04721700E-09  3.04721700E-09  3.04721700E-09  3.04721700E-09
    3.04721700E-09  3.04721700E-09  3.04721700E-09  3.04721700E-09  3.04721700E-09  3.04721700E-09  3.04721700E-09  3.04721700E-09  3.04721700E-09  3.04721700E-09  3.04721700E-09  3.04721700E-09  3.04721700E-09  3.04721700E-09  3.04721700E-09  3.04721700E-09  3.04721700E-09  3.04721700E-09  3.04721700E-09  3.04721700E-09
    3.04721700E-09  3.04721700E-09  3.04721700E-09  3.04721700E-09  3.04721700E-09  3.04721700E-09  3.04721700E-09  3.04721700E-09  3.04721700E-09  3.04721700E-09  3.04721700E-09  3.04721700E-09  3.04721700E-09  3.04721700E-09  3.04721700E-09  3.04721700E-09  3.04721700E-09  3.04721700E-09  3.04721700E-09  3.04721700E-09
    3.04721700E-09  3.04721700E-09  3.04721700E-09  3.04721700E-09  3.04721700E-09  3.04721700E-09  3.04721700E-09  3.04721700E-09  3.04721700E-09  3.04721700E-09  3.04721700E-09  3.04721700E-09  3.04721700E-09  3.04721700E-09  3.04721700E-09  3.04721700E-09  3.04721700E-09  3.04721700E-09  3.04721700E-09  3.04721700E-09
    3.04721700E-09  3.04721700E-09  3.04721700E-09  3.04721700E-09  3.04721700E-09  3.04721700E-09  3.04721700E-09  3.04721700E-09  3.04721700E-09  3.04721700E-09  3.04721700E-09  3.04721700E-09  3.04721700E-09  3.04721700E-09  3.04721700E-09  3.04721700E-09  3.04721700E-09  3.04721700E-09  3.04721700E-09  3.04721700E-09
    3.04721700E-09  3.04721700E-09  3.04721700E-09  3.04721700E-09  3.04721700E-09  3.04721700E-09  3.04721700E-09  3.04721700E-09  3.04721700E-09  3.04721700E-09  3.04721700E-09  3.04721700E-09  3.04721700E-09  3.04721700E-09  3.04721700E-09  3.04721700E-09  3.04721700E-09  3.04721700E-09  3.04721700E-09  3.04721700E-09
    3.04721700E-09  3.04721700E-09  3.04721700E-09  3.04721700E-09  3.04721700E-09  3.04721700E-09  3.04721700E-09  3.04721700E-09  3.04721700E-09  3.04721700E-09  3.04721700E-09  3.04721700E-09  3.04721700E-09  3.04721700E-09  3.04721700E-09  3.04721700E-09  3.04721700E-09  3.04721700E-09  3.04721700E-09  3.04721700E-09
    3.04721700E-09  3.04721700E-09  3.04721700E-09  3.04721700E-09  3.04721700E-09  3.04721700E-09  3.04721700E-09  3.04721700E-09  3.04721700E-09  3.04721700E-09  3.04721700E-09  3.04721700E-09  3.04721700E-09  3.04721700E-09  3.04721700E-09  3.04721700E-09  3.04721700E-09  3.04721700E-09  3.04721700E-09  3.04721700E-09
    3.04721700E-09  3.04721700E-09  3.04721700E-09  3.04721700E-09  3.04721700E-09  3.04721700E-09  3.04721700E-09  3.04721700E-09  3.04721700E-09  3.04721700E-09  3.04721700E-09  3.04721700E-09  3.04721700E-09  3.04721700E-09  3.04721700E-09  3.04721700E-09  3.04721700E-09  3.04721700E-09  3.04721700E-09  3.04721700E-09
    3.04721700E-09  3.04721700E-09  3.04721700E-09  3.04721700E-09  3.04721700E-09  3.04721700E-09  3.04721700E-09  3.04721700E-09  3.04721700E-09  3.04721700E-09  3.04721700E-09  3.04721700E-09  3.04721700E-09  3.04721700E-09  3.04721700E-09  3.04721700E-09  3.04721700E-09  3.04721700E-09  3.04721700E-09  3.04721700E-09
    3.04721700E-09  3.04721700E-09  3.04721700E-09  3.04721700E-09  3.04721700E-09  3.04721700E-09  3.04721700E-09  3.04721700E-09  3.04721700E-09  3.04721700E-09  3.04721700E-09  3.04721700E-09  3.04721700E-09  3.04721700E-09  3.04721700E-09  3.04721700E-09  3.04721700E-09  3.04721700E-09  3.04721700E-09  3.04721700E-09
    3.04721700E-09  3.04721700E-09  3.04721700E-09  3.04721700E-09  3.04721700E-09  3.04721700E-09  3.04721700E-09  3.04721700E-09  3.04721700E-09  3.04721700E-09  3.04721700E-09  3.04721700E-09  3.04721700E-09  3.04721700E-09  3.04721700E-09  3.04721700E-09  3.04721700E-09  3.04721700E-09  3.04721700E-09  3.04721700E-09
    3.04721700E-09  3.04721700E-09  3.04721700E-09  3.04721700E-09  3.04721700E-09  3.04721700E-09  3.04721700E-09  3.04721700E-09  3.04721700E-09  3.04721700E-09  3.04721700E-09  3.04721700E-09  3.04721700E-09  3.04721700E-09  3.04721700E-09  3.04721700E-09  3.04721700E-09  3.04721700E-09  3.04721700E-09  3.04721700E-09
    3.04721700E-09  3.04721700E-09  3.04721700E-09  3.04721700E-09  3.04721700E-09  3.04721700E-09  3.04721700E-09  3.04721700E-09  3.04721700E-09  3.04721700E-09  3.04721700E-09  3.04721700E-09  3.04721700E-09  3.04721700E-09  3.04721700E-09  3.04721700E-09  3.04721700E-09  3.04721700E-09  3.04721700E-09  3.04721700E-09
    3.04721700E-09  3.04721700E-09  3.04721700E-09  3.04721700E-09  3.04721700E-09  3.04721700E-09  3.04721700E-09  3.04721700E-09  3.04721700E-09  3.04721700E-09  3.04721700E-09  3.04721700E-09  3.04721700E-09  3.04721700E-09  3.04721700E-09  3.04721700E-09  3.04721700E-09  3.04721700E-09  3.04721700E-09  3.04721700E-09
    3.04721700E-09  3.04721700E-09  3.04721700E-09  3.04721700E-09  3.04721700E-09  3.04721700E-09  3.04721700E-09  3.04721700E-09  3.04721700E-09  3.04721700E-09  3.04721700E-09  3.04721700E-09  3.04721700E-09  3.04721700E-09  3.04721700E-09  3.04721700E-09  3.04721700E-09  3.04721700E-09  3.04721700E-09  3.04721700E-09
    3.04721700E-09  3.04721700E-09  3.04721700E-09  3.04721700E-09  3.04721700E-09  3.04721700E-09  3.04721700E-09  3.04721700E-09  3.04721700E-09  3.04721700E-09  3.04721700E-09  3.04721700E-09  3.04721700E-09  3.04721700E-09  3.04721700E-09  3.04721700E-09  3.04721700E-09  3.04721700E-09  3.04721700E-09  3.04721700E-09
    3.04721700E-09  3.04721700E-09  3.04721700E-09  3.04721700E-09  3.04721700E-09  3.04721700E-09  3.04721700E-09  3.04721700E-09  3.04721700E-09  3.04721700E-09  3.04721700E-09  3.04721700E-09  3.04721700E-09  3.04721700E-09  3.04721700E-09  3.04721700E-09  3.04721700E-09  3.04721700E-09  3.04721700E-09  3.04721700E-09
    3.04721700E-09  3.04721700E-09  3.04721700E-09  3.04721700E-09  3.04721700E-09  3.04721700E-09  3.04721700E-09  3.04721700E-09  3.04721700E-09  3.04721700E-09  3.04721700E-09  3.04721700E-09  3.04721700E-09  3.04721700E-09  3.04721700E-09  3.04721700E-09  3.04721700E-09  3.04721700E-09  3.04721700E-09  3.04721700E-09
    3.04721700E-09  3.04721700E-09  3.04721700E-09  3.04721700E-09  3.04721700E-09  3.04721700E-09  3.04721700E-09  3.04721700E-09  3.04721700E-09  3.04721700E-09  3.04721700E-09  3.04721700E-09  3.04721700E-09  3.04721700E-09  3.04721700E-09  3.04721700E-09  3.04721700E-09  3.04721700E-09  3.04721700E-09  3.04721700E-09
    3.04721700E-09  3.04721700E-09  3.04721700E-09  3.04721700E-09  3.04721700E-09  3.04721700E-09  3.04721700E-09  3.04721700E-09  3.04721700E-09  3.04721700E-09  3.04721700E-09  3.04721700E-09  3.04721700E-09  3.04721700E-09  3.04721700E-09  3.04721700E-09  3.04721700E-09  3.04721700E-09  3.04721700E-09  3.04721700E-09
    3.04721700E-09  3.04721700E-09  3.04721700E-09  3.04721700E-09  3.04721700E-09  3.04721700E-09  3.04721700E-09  3.04721700E-09  3.04721700E-09  3.04721700E-09  3.04721700E-09  3.04721700E-09  3.04721700E-09  3.04721700E-09  3.04721700E-09  3.04721700E-09  3.04721700E-09  3.04721700E-09  3.04721700E-09  3.04721700E-09
    3.04721700E-09  3.04721700E-09  3.04721700E-09  3.04721700E-09  3.04721700E-09  3.04721700E-09  3.04721700E-09  3.04721700E-09  3.04721700E-09  3.04721700E-09  3.04721700E-09  3.04721700E-09  3.04721700E-09  3.04721700E-09  3.04721700E-09  3.04721700E-09  3.04721700E-09  3.04721700E-09  3.04721700E-09  3.04721700E-09
    3.04721700E-09  3.04721700E-09  3.04721700E-09  3.04721700E-09  3.04721700E-09  3.04721700E-09  3.04721700E-09  3.04721700E-09  3.04721700E-09  3.04721700E-09  3.04721700E-09  3.04721700E-09  3.04721700E-09  3.04721700E-09  3.04721700E-09  3.04721700E-09  3.04721700E-09  3.04721700E-09  3.04721700E-09  3.04721700E-09
    3.04721700E-09  3.04721700E-09  3.04721700E-09  3.04721700E-09  3.04721700E-09  3.04721700E-09  3.04721700E-09  3.04721700E-09  3.04721700E-09  3.04721700E-09  3.04721700E-09  3.04721700E-09  3.04721700E-09  3.04721700E-09  3.04721700E-09  3.04721700E-09  3.04721700E-09  3.04721700E-09  3.04721700E-09  3.04721700E-09
    3.04721700E-09  3.04721700E-09  3.04721700E-09  3.04721700E-09  3.04721700E-09  3.04721700E-09  3.04721700E-09  3.04721700E-09  3.04721700E-09  3.04721700E-09  3.04721700E-09  3.04721700E-09  3.04721700E-09  3.04721700E-09  3.04721700E-09  3.04721700E-09  3.04721700E-09  3.04721700E-09  3.04721700E-09  3.04721700E-09
    3.04721700E-09  3.04721700E-09  3.04721700E-09  3.04721700E-09  3.04721700E-09  3.04721700E-09  3.04721700E-09  3.04721700E-09  3.04721700E-09  3.04721700E-09  3.04721700E-09  3.04721700E-09  3.04721700E-09  3.04721700E-09  3.04721700E-09  3.04721700E-09  3.04721700E-09  3.04721700E-09  3.04721700E-09  3.04721700E-09
    3.04721700E-09  3.04721700E-09  3.04721700E-09  3.04721700E-09  3.04721700E-09  3.04721700E-09  3.04721700E-09  3.04721700E-09  3.04721700E-09  3.04721700E-09  3.04721700E-09  3.04721700E-09  3.04721700E-09  3.04721700E-09  3.04721700E-09  3.04721700E-09  3.04721700E-09  3.04721700E-09  3.04721700E-09  3.04721700E-09
    3.04721700E-09  3.04721700E-09  3.04721700E-09  3.04721700E-09  3.04721700E-09  3.04721700E-09  3.04721700E-09  3.04721700E-09  3.04721700E-09  3.04721700E-09  3.04721700E-09  3.04721700E-09  3.04721700E-09  3.04721700E-09  3.04721700E-09  3.04721700E-09  3.04721700E-09  3.04721700E-09  3.04721700E-09  3.04721700E-09
    3.04721700E-09  3.04721700E-09  3.04721700E-09  3.04721700E-09  3.04721700E-09  3.04721700E-09  3.04721700E-09  3.04721700E-09  3.04721700E-09  3.04721700E-09  3.04721700E-09  3.04721700E-09  3.04721700E-09  3.04721700E-09  3.04721700E-09  3.04721700E-09  3.04721700E-09  3.04721700E-09  3.04721700E-09  3.04721700E-09
    3.04721700E-09  3.04721700E-09  3.04721700E-09  3.04721700E-09  3.04721700E-09  3.04721700E-09  3.04721700E-09  3.04721700E-09  3.04721700E-09  3.04721700E-09  3.04721700E-09  3.04721700E-09  3.04721700E-09  3.04721700E-09  3.04721700E-09  3.04721700E-09  3.04721700E-09  3.04721700E-09  3.04721700E-09  3.04721700E-09
    3.04721700E-09  3.04721700E-09  3.04721700E-09  3.04721700E-09  3.04721700E-09  3.04721700E-09  3.04721700E-09  3.04721700E-09  3.04721700E-09  3.04721700E-09  3.04721700E-09  3.04721700E-09  3.04721700E-09  3.04721700E-09  3.04721700E-09  3.04721700E-09  3.04721700E-09  3.04721700E-09  3.04721700E-09  3.04721700E-09
    3.04721700E-09  3.04721700E-09  3.04721700E-09  3.04721700E-09  3.04721700E-09  3.04721700E-09  3.04721700E-09  3.04721700E-09  3.04721700E-09  3.04721700E-09  3.04721700E-09  3.04721700E-09  3.04721700E-09  3.04721700E-09  3.04721700E-09  3.04721700E-09  3.04721700E-09  3.04721700E-09  3.04721700E-09  3.04721700E-09
    3.04721700E-09  3.04721700E-09  3.04721700E-09  3.04721700E-09  3.04721700E-09  3.04721700E-09  3.04721700E-09  3.04721700E-09  3.04721700E-09  3.04721700E-09  3.04721700E-09  3.04721700E-09  3.04721700E-09  3.04721700E-09  3.04721700E-09  3.04721700E-09  3.04721700E-09  3.04721700E-09  3.04721700E-09  3.04721700E-09
    3.04721700E-09  3.04721700E-09  3.04721700E-09  3.04721700E-09  3.04721700E-09  3.04721700E-09  3.04721700E-09  3.04721700E-09  3.04721700E-09  3.04721700E-09  3.04721700E-09  3.04721700E-09  3.04721700E-09  3.04721700E-09  3.04721700E-09  3.04721700E-09  3.04721700E-09  3.04721700E-09  3.04721700E-09  3.04721700E-09
    3.04721700E-09  3.04721700E-09  3.04721700E-09  3.04721700E-09  3.04721700E-09  3.04721700E-09  3.04721700E-09  3.04721700E-09  3.04721700E-09  3.04721700E-09  3.04721700E-09  3.04721700E-09  3.04721700E-09  3.04721700E-09  3.04721700E-09  3.04721700E-09  3.04721700E-09  3.04721700E-09  3.04721700E-09  3.04721700E-09
    3.04721700E-09  3.04721700E-09  3.04721700E-09  3.04721700E-09  3.04721700E-09  3.04721700E-09  3.04721700E-09  3.04721700E-09  3.04721700E-09  3.04721700E-09  3.04721700E-09  3.04721700E-09  3.04721700E-09  3.04721700E-09  3.04721700E-09  3.04721700E-09  3.04721700E-09  3.04721700E-09  3.04721700E-09  3.04721700E-09
    3.04721700E-09  3.04721700E-09  3.04721700E-09  3.04721700E-09  3.04721700E-09  3.04721700E-09  3.04721700E-09  3.04721700E-09  3.04721700E-09  3.04721700E-09  3.04721700E-09  3.04721700E-09  3.04721700E-09  3.04721700E-09  3.04721700E-09  3.04721700E-09  3.04721700E-09  3.04721700E-09  3.04721700E-09  3.04721700E-09
    3.04721700E-09  3.04721700E-09  3.04721700E-09  3.04721700E-09  3.04721700E-09  3.04721700E-09  3.04721700E-09  3.04721700E-09  3.04721700E-09  3.04721700E-09  3.04721700E-09  3.04721700E-09  3.04721700E-09  3.04721700E-09  3.04721700E-09  3.04721700E-09  3.04721700E-09  3.04721700E-09  3.04721700E-09  3.04721700E-09
    3.04721700E-09  3.04721700E-09  3.04721700E-09  3.04721700E-09  3.04721700E-09  3.04721700E-09  3.04721700E-09  3.04721700E-09  3.04721700E-09  3.04721700E-09  3.04721700E-09  3.04721700E-09  3.04721700E-09  3.04721700E-09  3.04721700E-09  3.04721700E-09  3.04721700E-09  3.04721700E-09  3.04721700E-09  3.04721700E-09
    3.04721700E-09  3.04721700E-09  3.04721700E-09  3.04721700E-09  3.04721700E-09  3.04721700E-09  3.04721700E-09  3.04721700E-09  3.04721700E-09  3.04721700E-09  3.04721700E-09  3.04721700E-09  3.04721700E-09  3.04721700E-09  3.04721700E-09  3.04721700E-09  3.04721700E-09  3.04721700E-09  3.04721700E-09  3.04721700E-09
    3.04721700E-09  3.04721700E-09  3.04721700E-09  3.04721700E-09  3.04721700E-09  3.04721700E-09  3.04721700E-09  3.04721700E-09  3.04721700E-09  3.04721700E-09  3.04721700E-09  3.04721700E-09  3.04721700E-09  3.04721700E-09  3.04721700E-09  3.04721700E-09  3.04721700E-09  3.04721700E-09  3.04721700E-09  3.04721700E-09
    3.04721700E-09  3.04721700E-09  3.04721700E-09  3.04721700E-09  3.04721700E-09  3.04721700E-09  3.04721700E-09  3.04721700E-09  3.04721700E-09  3.04721700E-09  3.04721700E-09  3.04721700E-09  3.04721700E-09  3.04721700E-09  3.04721700E-09  3.04721700E-09  3.04721700E-09  3.04721700E-09  3.04721700E-09  3.04721700E-09
    3.04721700E-09  3.04721700E-09  3.04721700E-09  3.04721700E-09  3.04721700E-09  3.04721700E-09  3.04721700E-09  3.04721700E-09  3.04721700E-09  3.04721700E-09  3.04721700E-09  3.04721700E-09  3.04721700E-09  3.04721700E-09  3.04721700E-09  3.04721700E-09  3.04721700E-09  3.04721700E-09  3.04721700E-09  3.04721700E-09
    3.04721700E-09  3.04721700E-09  3.04721700E-09  3.04721700E-09  3.04721700E-09  3.04721700E-09  3.04721700E-09  3.04721700E-09  3.04721700E-09  3.04721700E-09  3.04721700E-09  3.04721700E-09  3.04721700E-09  3.04721700E-09  3.04721700E-09  3.04721700E-09  3.04721700E-09  3.04721700E-09  3.04721700E-09  3.04721700E-09
    3.04721700E-09  3.04721700E-09  3.04721700E-09  3.04721700E-09  3.04721700E-09  3.04721700E-09  3.04721700E-09  3.04721700E-09  3.04721700E-09  3.04721700E-09  3.04721700E-09  3.04721700E-09  3.04721700E-09  3.04721700E-09  3.04721700E-09  3.04721700E-09  3.04721700E-09  3.04721700E-09  3.04721700E-09  3.04721700E-09
    3.04721700E-09  3.04721700E-09  3.04721700E-09  3.04721700E-09  3.04721700E-09  3.04721700E-09  3.04721700E-09  3.04721700E-09  3.04721700E-09  3.04721700E-09  3.04721700E-09  3.04721700E-09  3.04721700E-09  3.04721700E-09  3.04721700E-09  3.04721700E-09  3.04721700E-09  3.04721700E-09  3.04721700E-09  3.04721700E-09
    3.04721700E-09  3.04721700E-09  3.04721700E-09  3.04721700E-09  3.04721700E-09  3.04721700E-09  3.04721700E-09  3.04721700E-09  3.04721700E-09  3.04721700E-09  3.04721700E-09  3.04721700E-09  3.04721700E-09  3.04721700E-09  3.04721700E-09  3.04721700E-09  3.04721700E-09  3.04721700E-09  3.04721700E-09  3.04721700E-09
    3.04721700E-09  3.04721700E-09  3.04721700E-09  3.04721700E-09  3.04721700E-09  3.04721700E-09  3.04721700E-09  3.04721700E-09  3.04721700E-09  3.04721700E-09  3.04721700E-09  3.04721700E-09  3.04721700E-09  3.04721700E-09  3.04721700E-09  3.04721700E-09  3.04721700E-09  3.04721700E-09  3.04721700E-09  3.04721700E-09
    3.04721700E-09  3.04721700E-09  3.04721700E-09  3.04721700E-09  3.04721700E-09  3.04721700E-09  3.04721700E-09  3.04721700E-09  3.04721700E-09  3.04721700E-09  3.04721700E-09  3.04721700E-09  3.04721700E-09  3.04721700E-09  3.04721700E-09  3.04721700E-09  3.04721700E-09  3.04721700E-09  3.04721700E-09  3.04721700E-09
    3.04721700E-09  3.04721700E-09  3.04721700E-09  3.04721700E-09  3.04721700E-09  3.04721700E-09  3.04721700E-09  3.04721700E-09  3.04721700E-09  3.04721700E-09  3.04721700E-09  3.04721700E-09  3.04721700E-09  3.04721700E-09  3.04721700E-09  3.04721700E-09  3.04721700E-09  3.04721700E-09  3.04721700E-09  3.04721700E-09
    3.04721700E-09  3.04721700E-09  3.04721700E-09  3.04721700E-09  3.04721700E-09  3.04721700E-09  3.04721700E-09  3.04721700E-09  3.04721700E-09  3.04721700E-09  3.04721700E-09  3.04721700E-09  3.04721700E-09  3.04721700E-09  3.04721700E-09  3.04721700E-09  3.04721700E-09  3.04721700E-09  3.04721700E-09  3.04721700E-09
    3.04721700E-09  3.04721700E-09  3.04721700E-09  3.04721700E-09  3.04721700E-09  3.04721700E-09  3.04721700E-09  3.04721700E-09  3.04721700E-09  3.04721700E-09  3.04721700E-09  3.04721700E-09  3.04721700E-09  3.04721700E-09  3.04721700E-09  3.04721700E-09  3.04721700E-09  3.04721700E-09  3.04721700E-09  3.04721700E-09
    3.04721700E-09  3.04721700E-09  3.04721700E-09  3.04721700E-09  3.04721700E-09  3.04721700E-09  3.04721700E-09  3.04721700E-09  3.04721700E-09  3.04721700E-09  3.04721700E-09  3.04721700E-09  3.04721700E-09  3.04721700E-09  3.04721700E-09  3.04721700E-09  3.04721700E-09  3.04721700E-09  3.04721700E-09  3.04721700E-09
    3.04721700E-09  3.04721700E-09  3.04721700E-09  3.04721700E-09  3.04721700E-09  3.04721700E-09  3.04721700E-09  3.04721700E-09  3.04721700E-09  3.04721700E-09  3.04721700E-09  3.04721700E-09  3.04721700E-09  3.04721700E-09  3.04721700E-09  3.04721700E-09  3.04721700E-09  3.04721700E-09  3.04721700E-09  3.04721700E-09
    3.04721700E-09  3.04721700E-09  3.04721700E-09  3.04721700E-09  3.04721700E-09  3.04721700E-09  3.04721700E-09  3.04721700E-09  3.04721700E-09  3.04721700E-09  3.04721700E-09  3.04721700E-09  3.04721700E-09  3.04721700E-09  3.04721700E-09  3.04721700E-09  3.04721700E-09  3.04721700E-09  3.04721700E-09  3.04721700E-09
    3.04721700E-09  3.04721700E-09  3.04721700E-09  3.04721700E-09  3.04721700E-09  3.04721700E-09  3.04721700E-09  3.04721700E-09  3.04721700E-09  3.04721700E-09  3.04721700E-09  3.04721700E-09  3.04721700E-09  3.04721700E-09  3.04721700E-09  3.04721700E-09  3.04721700E-09  3.04721700E-09  3.04721700E-09  3.04721700E-09