# File generated by Flopy version 3.3.5 on 03/29/2022 at 18:29:07.
BEGIN options
END options

BEGIN timing
  TDIS6  mfsim.tdis
END timing

BEGIN models
  gwf6  ml.nam  ml
END models

BEGIN exchanges
END exchanges

BEGIN solutiongroup  1
  ims6  mfsim.ims  ml
END solutiongroup  1

