# File generated by Flopy version 3.3.5 on 03/03/2022 at 10:47:29.
BEGIN options
END options

BEGIN linear
  INNER_MAXIMUM  100
  INNER_HCLOSE  1.00000000E-04
  inner_rclose       0.00100000
END linear

