# File generated by Flopy version 3.3.5 on 03/01/2022 at 15:48:12.
BEGIN options
END options

