# File generated by Flopy version 3.3.5 on 03/13/2022 at 22:03:16.
BEGIN options
  PRINT_OPTION  summary
END options

BEGIN linear
  INNER_MAXIMUM  1000
  INNER_DVCLOSE  1.00000000E-04
  inner_rclose       0.00100000
END linear

