# File generated by Flopy version 3.3.5 on 03/29/2022 at 18:29:07.
BEGIN options
  TIME_UNITS  seconds
END options

BEGIN dimensions
  NPER  1
END dimensions

BEGIN perioddata
       2.00000000  1       1.00000000
END perioddata

