# File generated by Flopy version 3.3.5 on 03/03/2022 at 10:47:29.
BEGIN options
  LENGTH_UNITS  meters
  XORIGIN  4.05575681E+05
  YORIGIN  6.42330654E+06
END options

BEGIN dimensions
  NLAY  1
  NCPL  19687
  NVERT  20119
END dimensions

BEGIN griddata
  top
    INTERNAL  FACTOR  1.0
  30.00000000      30.00000000      30.00000000      30.00000000      30.00000000      30.00000000      30.00000000      30.00000000      30.00000000      30.00000000      30.00000000      30.00000000      30.00000000      30.00000000      30.00000000      30.00000000      30.00000000      30.00000000      30.00000000      30.00000000      30.00000000      30.00000000      30.00000000      30.00000000      30.00000000      30.00000000      30.00000000      30.00000000      30.00000000      30.00000000      30.00000000      30.00000000      30.00000000      30.00000000      30.00000000      30.00000000      30.00000000      30.00000000      30.00000000      30.00000000      30.00000000      30.00000000      30.00000000      30.00000000      30.00000000      30.00000000      30.00000000      30.00000000      30.00000000      30.00000000      30.00000000      30.00000000      30.00000000      30.00000000      30.00000000      30.00000000      30.00000000      30.00000000      30.00000000      30.00000000      30.00000000      30.00000000      30.00000000      30.00000000      30.00000000      30.00000000      30.00000000      30.00000000      30.00000000      30.00000000      30.00000000      30.00000000      30.00000000      30.00000000      30.00000000      30.00000000      30.00000000      30.00000000      30.00000000      30.00000000      30.00000000      30.00000000      30.00000000      30.00000000      30.00000000      30.00000000      30.00000000      30.00000000      30.00000000      30.00000000      30.00000000      30.00000000      30.00000000      30.00000000      30.00000000      30.00000000      30.00000000      30.00000000      30.00000000      30.00000000      30.00000000      30.00000000      30.00000000      30.00000000      30.00000000      30.00000000      30.00000000      30.00000000      30.00000000      30.00000000      30.00000000      30.00000000      30.00000000      30.00000000      30.00000000      30.00000000      30.00000000      30.00000000      30.00000000      30.00000000      30.00000000      30.00000000      30.00000000      30.00000000      30.00000000      30.00000000      30.00000000      30.00000000      30.00000000      30.00000000      30.00000000      30.00000000      30.00000000      30.00000000      30.00000000      30.00000000      30.00000000      30.00000000      30.00000000      30.00000000      30.00000000      30.00000000      30.00000000      30.00000000      30.00000000      30.00000000      30.00000000      30.00000000      30.00000000      30.00000000      30.00000000      30.00000000      30.00000000      30.00000000      30.00000000      30.00000000      30.00000000      30.00000000      30.00000000      30.00000000      30.00000000      30.00000000      30.00000000      30.00000000      30.00000000      30.00000000      30.00000000      30.00000000      30.00000000      30.00000000      30.00000000      30.00000000      30.00000000      30.00000000      30.00000000      30.00000000      30.00000000      30.00000000      30.00000000      30.00000000      30.00000000      30.00000000      30.00000000      30.00000000      30.00000000      30.00000000      30.00000000      30.00000000      30.00000000      30.00000000      30.00000000      30.00000000      30.00000000      30.00000000      30.00000000      30.00000000      30.00000000      30.00000000      30.00000000      30.00000000      30.00000000      30.00000000      30.00000000      30.00000000      30.00000000      30.00000000      30.00000000      30.00000000      30.00000000      30.00000000      30.00000000      30.00000000      30.00000000      30.00000000      30.00000000      30.00000000      30.00000000      30.00000000      30.00000000      30.00000000      30.00000000      30.00000000      30.00000000      30.00000000      30.00000000      30.00000000      30.00000000      30.00000000      30.00000000      30.00000000      30.00000000      30.00000000      30.00000000      30.00000000      30.00000000      30.00000000      30.00000000      30.00000000      30.00000000      30.00000000      30.00000000      30.00000000      30.00000000      30.00000000      30.00000000      30.00000000      30.00000000      30.00000000      30.00000000      30.00000000      30.00000000      30.00000000      30.00000000      30.00000000      30.00000000      30.00000000      30.00000000      30.00000000      30.00000000      30.00000000      30.00000000      30.00000000      30.00000000      30.00000000      30.00000000      30.00000000      30.00000000      30.00000000      30.00000000      30.00000000      30.00000000      30.00000000      30.00000000      30.00000000      30.00000000      30.00000000      30.00000000      30.00000000      30.00000000      30.00000000      30.00000000      30.00000000      30.00000000      30.00000000      30.00000000      30.00000000      30.00000000      30.00000000      30.00000000      30.00000000      30.00000000      30.00000000      30.00000000      30.00000000      30.00000000      30.00000000      30.00000000      30.00000000      30.00000000      30.00000000      30.00000000      30.00000000      30.00000000      30.00000000      30.00000000      30.00000000      30.00000000      30.00000000      30.00000000      30.00000000      30.00000000      30.00000000      30.00000000      30.00000000      30.00000000      30.00000000      30.00000000      30.00000000      30.00000000      30.00000000      30.00000000      30.00000000      30.00000000      30.00000000      30.00000000      30.00000000      30.00000000      30.00000000      30.00000000      30.00000000      30.00000000      30.00000000      30.00000000      30.00000000      30.00000000      30.00000000      30.00000000      30.00000000      30.00000000      30.00000000      30.00000000      30.00000000      30.00000000      30.00000000      30.00000000      30.00000000      30.00000000      30.00000000      30.00000000      30.00000000      30.00000000      30.00000000      30.00000000      30.00000000      30.00000000      30.00000000      30.00000000      30.00000000      30.00000000      30.00000000      30.00000000      30.00000000      30.00000000      30.00000000      30.00000000      30.00000000      30.00000000      30.00000000      30.00000000      30.00000000      30.00000000      30.00000000      30.00000000      30.00000000      30.00000000      30.00000000      30.00000000      30.00000000      30.00000000      30.00000000      30.00000000      30.00000000      30.00000000      30.00000000      30.00000000      30.00000000      30.00000000      30.00000000      30.00000000      30.00000000      30.00000000      30.00000000      30.00000000      30.00000000      30.00000000      30.00000000      30.00000000      30.00000000      30.00000000      30.00000000      30.00000000      30.00000000      30.00000000      30.00000000      30.00000000      30.00000000      30.00000000      30.00000000      30.00000000      30.00000000      30.00000000      30.00000000      30.00000000      30.00000000      30.00000000      30.00000000      30.00000000      30.00000000      30.00000000      30.00000000      30.00000000      30.00000000      30.00000000      30.00000000      30.00000000      30.00000000      30.00000000      30.00000000      30.00000000      30.00000000      30.00000000      30.00000000      30.00000000      30.00000000      30.00000000      30.00000000      30.00000000      30.00000000      30.00000000      30.00000000      30.00000000      30.00000000      30.00000000      30.00000000      30.00000000      30.00000000      30.00000000      30.00000000      30.00000000      30.00000000      30.00000000      30.00000000      30.00000000      30.00000000      30.00000000      30.00000000      30.00000000      30.00000000      30.00000000      30.00000000      30.00000000      30.00000000      30.00000000      30.00000000      30.00000000      30.00000000      30.00000000      30.00000000      30.00000000      30.00000000      30.00000000      30.00000000      30.00000000      30.00000000      30.00000000      30.00000000      30.00000000      30.00000000      30.00000000      30.00000000      30.00000000      30.00000000      30.00000000      30.00000000      30.00000000      30.00000000      30.00000000      30.00000000      30.00000000      30.00000000      30.00000000      30.00000000      30.00000000      30.00000000      30.00000000      30.00000000      30.00000000      30.00000000      30.00000000      30.00000000      30.00000000      30.00000000      30.00000000      30.00000000      30.00000000      30.00000000      30.00000000      30.00000000      30.00000000      30.00000000      30.00000000      30.00000000      30.00000000      30.00000000      30.00000000      30.00000000      30.00000000      30.00000000      30.00000000      30.00000000      30.00000000      30.00000000      30.00000000      30.00000000      30.00000000      30.00000000      30.00000000      30.00000000      30.00000000      30.00000000      30.00000000      30.00000000      30.00000000      30.00000000      30.00000000      30.00000000      30.00000000      30.00000000      30.00000000      30.00000000      30.00000000      30.00000000      30.00000000      30.00000000      30.00000000      30.00000000      30.00000000      30.00000000      30.00000000      30.00000000      30.00000000      30.00000000      30.00000000      30.00000000      30.00000000      30.00000000      30.00000000      30.00000000      30.00000000      30.00000000      30.00000000      30.00000000      30.00000000      30.00000000      30.00000000      30.00000000      30.00000000      30.00000000      30.00000000      30.00000000      30.00000000      30.00000000      30.00000000      30.00000000      30.00000000      30.00000000      30.00000000      30.00000000      30.00000000      30.00000000      30.00000000      30.00000000      30.00000000      30.00000000      30.00000000      30.00000000      30.00000000      30.00000000      30.00000000      30.00000000      30.00000000      30.00000000      30.00000000      30.00000000      30.00000000      30.00000000      30.00000000      30.00000000      30.00000000      30.00000000      30.00000000      30.00000000      30.00000000      30.00000000      30.00000000      30.00000000      30.00000000      30.00000000      30.00000000      30.00000000      30.00000000      30.00000000      30.00000000      30.00000000      30.00000000      30.00000000      30.00000000      30.00000000      30.00000000      30.00000000      30.00000000      30.00000000      30.00000000      30.00000000      30.00000000      30.00000000      30.00000000      30.00000000      30.00000000      30.00000000      30.00000000      30.00000000      30.00000000      30.00000000      30.00000000      30.00000000      30.00000000      30.00000000      30.00000000      30.00000000      30.00000000      30.00000000      30.00000000      30.00000000      30.00000000      30.00000000      30.00000000      30.00000000      30.00000000      30.00000000      30.00000000      30.00000000      30.00000000      30.00000000      30.00000000      30.00000000      30.00000000      30.00000000      30.00000000      30.00000000      30.00000000      30.00000000      30.00000000      30.00000000      30.00000000      30.00000000      30.00000000      30.00000000      30.00000000      30.00000000      30.00000000      30.00000000      30.00000000      30.00000000      30.00000000      30.00000000      30.00000000      30.00000000      30.00000000      30.00000000      30.00000000      30.00000000      30.00000000      30.00000000      30.00000000      30.00000000      30.00000000      30.00000000      30.00000000      30.00000000      30.00000000      30.00000000      30.00000000      30.00000000      30.00000000      30.00000000      30.00000000      30.00000000      30.00000000      30.00000000      30.00000000      30.00000000      30.00000000      30.00000000      30.00000000      30.00000000      30.00000000      30.00000000      30.00000000      30.00000000      30.00000000      30.00000000      30.00000000      30.00000000      30.00000000      30.00000000      30.00000000      30.00000000      30.00000000      30.00000000      30.00000000      30.00000000      30.00000000      30.00000000      30.00000000      30.00000000      30.00000000      30.00000000      30.00000000      30.00000000      30.00000000      30.00000000      30.00000000      30.00000000      30.00000000      30.00000000      30.00000000      30.00000000      30.00000000      30.00000000      30.00000000      30.00000000      30.00000000      30.00000000      30.00000000      30.00000000      30.00000000      30.00000000      30.00000000      30.00000000      30.00000000      30.00000000      30.00000000      30.00000000      30.00000000      30.00000000      30.00000000      30.00000000      30.00000000      30.00000000      30.00000000      30.00000000      30.00000000      30.00000000      30.00000000      30.00000000      30.00000000      30.00000000      30.00000000      30.00000000      30.00000000      30.00000000      30.00000000      30.00000000      30.00000000      30.00000000      30.00000000      30.00000000      30.00000000      30.00000000      30.00000000      30.00000000      30.00000000      30.00000000      30.00000000      30.00000000      30.00000000      30.00000000      30.00000000      30.00000000      30.00000000      30.00000000      30.00000000      30.00000000      30.00000000      30.00000000      30.00000000      30.00000000      30.00000000      30.00000000      30.00000000      30.00000000      30.00000000      30.00000000      30.00000000      30.00000000      30.00000000      30.00000000      30.00000000      30.00000000      30.00000000      30.00000000      30.00000000      30.00000000      30.00000000      30.00000000      30.00000000      30.00000000      30.00000000      30.00000000      30.00000000      30.00000000      30.00000000      30.00000000      30.00000000      30.00000000      30.00000000      30.00000000      30.00000000      30.00000000      30.00000000      30.00000000      30.00000000      30.00000000      30.00000000      30.00000000      30.00000000      30.00000000      30.00000000      30.00000000      30.00000000      30.00000000      30.00000000      30.00000000      30.00000000      30.00000000      30.00000000      30.00000000      30.00000000      30.00000000      30.00000000      30.00000000      30.00000000      30.00000000      30.00000000      30.00000000      30.00000000      30.00000000      30.00000000      30.00000000      30.00000000      30.00000000      30.00000000      30.00000000      30.00000000      30.00000000      30.00000000      30.00000000      30.00000000      30.00000000      30.00000000      30.00000000      30.00000000      30.00000000      30.00000000      30.00000000      30.00000000      30.00000000      30.00000000      30.00000000      30.00000000      30.00000000      30.00000000      30.00000000      30.00000000      30.00000000      30.00000000      30.00000000      30.00000000      30.00000000      30.00000000      30.00000000      30.00000000      30.00000000      30.00000000      30.00000000      30.00000000      30.00000000      30.00000000      30.00000000      30.00000000      30.00000000      30.00000000      30.00000000      30.00000000      30.00000000      30.00000000      30.00000000      30.00000000      30.00000000      30.00000000      30.00000000      30.00000000      30.00000000      30.00000000      30.00000000      30.00000000      30.00000000      30.00000000      30.00000000      30.00000000      30.00000000      30.00000000      30.00000000      30.00000000      30.00000000      30.00000000      30.00000000      30.00000000      30.00000000      30.00000000      30.00000000      30.00000000      30.00000000      30.00000000      30.00000000      30.00000000      30.00000000      30.00000000      30.00000000      30.00000000      30.00000000      30.00000000      30.00000000      30.00000000      30.00000000      30.00000000      30.00000000      30.00000000      30.00000000      30.00000000      30.00000000      30.00000000      30.00000000      30.00000000      30.00000000      30.00000000      30.00000000      30.00000000      30.00000000      30.00000000      30.00000000      30.00000000      30.00000000      30.00000000      30.00000000      30.00000000      30.00000000      30.00000000      30.00000000      30.00000000      30.00000000      30.00000000      30.00000000      30.00000000      30.00000000      30.00000000      30.00000000      30.00000000      30.00000000      30.00000000      30.00000000      30.00000000      30.00000000      30.00000000      30.00000000      30.00000000      30.00000000      30.00000000      30.00000000      30.00000000      30.00000000      30.00000000      30.00000000      30.00000000      30.00000000      30.00000000      30.00000000      30.00000000      30.00000000      30.00000000      30.00000000      30.00000000      30.00000000      30.00000000      30.00000000      30.00000000      30.00000000      30.00000000      30.00000000      30.00000000      30.00000000      30.00000000      30.00000000      30.00000000      30.00000000      30.00000000      30.00000000      30.00000000      30.00000000      30.00000000      30.00000000      30.00000000      30.00000000      30.00000000      30.00000000      30.00000000      30.00000000      30.00000000      30.00000000      30.00000000      30.00000000      30.00000000      30.00000000      30.00000000      30.00000000      30.00000000      30.00000000      30.00000000      30.00000000      30.00000000      30.00000000      30.00000000      30.00000000      30.00000000      30.00000000      30.00000000      30.00000000      30.00000000      30.00000000      30.00000000      30.00000000      30.00000000      30.00000000      30.00000000      30.00000000      30.00000000      30.00000000      30.00000000      30.00000000      30.00000000      30.00000000      30.00000000      30.00000000      30.00000000      30.00000000      30.00000000      30.00000000      30.00000000      30.00000000      30.00000000      30.00000000      30.00000000      30.00000000      30.00000000      30.00000000      30.00000000      30.00000000      30.00000000      30.00000000      30.00000000      30.00000000      30.00000000      30.00000000      30.00000000      30.00000000      30.00000000      30.00000000      30.00000000      30.00000000      30.00000000      30.00000000      30.00000000      30.00000000      30.00000000      30.00000000      30.00000000      30.00000000      30.00000000      30.00000000      30.00000000      30.00000000      30.00000000      30.00000000      30.00000000      30.00000000      30.00000000      30.00000000      30.00000000      30.00000000      30.00000000      30.00000000      30.00000000      30.00000000      30.00000000      30.00000000      30.00000000      30.00000000      30.00000000      30.00000000      30.00000000      30.00000000      30.00000000      30.00000000      30.00000000      30.00000000      30.00000000      30.00000000      30.00000000      30.00000000      30.00000000      30.00000000      30.00000000      30.00000000      30.00000000      30.00000000      30.00000000      30.00000000      30.00000000      30.00000000      30.00000000      30.00000000      30.00000000      30.00000000      30.00000000      30.00000000      30.00000000      30.00000000      30.00000000      30.00000000      30.00000000      30.00000000      30.00000000      30.00000000      30.00000000      30.00000000      30.00000000      30.00000000      30.00000000      30.00000000      30.00000000      30.00000000      30.00000000      30.00000000      30.00000000      30.00000000      30.00000000      30.00000000      30.00000000      30.00000000      30.00000000      30.00000000      30.00000000      30.00000000      30.00000000      30.00000000      30.00000000      30.00000000      30.00000000      30.00000000      30.00000000      30.00000000      30.00000000      30.00000000      30.00000000      30.00000000      30.00000000      30.00000000      30.00000000      30.00000000      30.00000000      30.00000000      30.00000000      30.00000000      30.00000000      30.00000000      30.00000000      30.00000000      30.00000000      30.00000000      30.00000000      30.00000000      30.00000000      30.00000000      30.00000000      30.00000000      30.00000000      30.00000000      30.00000000      30.00000000      30.00000000      30.00000000      30.00000000      30.00000000      30.00000000      30.00000000      30.00000000      30.00000000      30.00000000      30.00000000      30.00000000      30.00000000      30.00000000      30.00000000      30.00000000      30.00000000      30.00000000      30.00000000      30.00000000      30.00000000      30.00000000      30.00000000      30.00000000      30.00000000      30.00000000      30.00000000      30.00000000      30.00000000      30.00000000      30.00000000      30.00000000      30.00000000      30.00000000      30.00000000      30.00000000      30.00000000      30.00000000      30.00000000      30.00000000      30.00000000      30.00000000      30.00000000      30.00000000      30.00000000      30.00000000      30.00000000      30.00000000      30.00000000      30.00000000      30.00000000      30.00000000      30.00000000      30.00000000      30.00000000      30.00000000      30.00000000      30.00000000      30.00000000      30.00000000      30.00000000      30.00000000      30.00000000      30.00000000      30.00000000      30.00000000      30.00000000      30.00000000      30.00000000      30.00000000      30.00000000      30.00000000      30.00000000      30.00000000      30.00000000      30.00000000      30.00000000      30.00000000      30.00000000      30.00000000      30.00000000      30.00000000      30.00000000      30.00000000      30.00000000      30.00000000      30.00000000      30.00000000      30.00000000      30.00000000      30.00000000      30.00000000      30.00000000      30.00000000      30.00000000      30.00000000      30.00000000      30.00000000      30.00000000      30.00000000      30.00000000      30.00000000      30.00000000      30.00000000      30.00000000      30.00000000      30.00000000      30.00000000      30.00000000      30.00000000      30.00000000      30.00000000      30.00000000      30.00000000      30.00000000      30.00000000      30.00000000      30.00000000      30.00000000      30.00000000      30.00000000      30.00000000      30.00000000      30.00000000      30.00000000      30.00000000      30.00000000      30.00000000      30.00000000      30.00000000      30.00000000      30.00000000      30.00000000      30.00000000      30.00000000      30.00000000      30.00000000      30.00000000      30.00000000      30.00000000      30.00000000      30.00000000      30.00000000      30.00000000      30.00000000      30.00000000      30.00000000      30.00000000      30.00000000      30.00000000      30.00000000      30.00000000      30.00000000      30.00000000      30.00000000      30.00000000      30.00000000      30.00000000      30.00000000      30.00000000      30.00000000      30.00000000      30.00000000      30.00000000      30.00000000      30.00000000      30.00000000      30.00000000      30.00000000      30.00000000      30.00000000      30.00000000      30.00000000      30.00000000      30.00000000      30.00000000      30.00000000      30.00000000      30.00000000      30.00000000      30.00000000      30.00000000      30.00000000      30.00000000      30.00000000      30.00000000      30.00000000      30.00000000      30.00000000      30.00000000      30.00000000      30.00000000      30.00000000      30.00000000      30.00000000      30.00000000      30.00000000      30.00000000      30.00000000      30.00000000      30.00000000      30.00000000      30.00000000      30.00000000      30.00000000      30.00000000      30.00000000      30.00000000      30.00000000      30.00000000      30.00000000      30.00000000      30.00000000      30.00000000      30.00000000      30.00000000      30.00000000      30.00000000      30.00000000      30.00000000      30.00000000      30.00000000      30.00000000      30.00000000      30.00000000      30.00000000      30.00000000      30.00000000      30.00000000      30.00000000      30.00000000      30.00000000      30.00000000      30.00000000      30.00000000      30.00000000      30.00000000      30.00000000      30.00000000      30.00000000      30.00000000      30.00000000      30.00000000      30.00000000      30.00000000      30.00000000      30.00000000      30.00000000      30.00000000      30.00000000      30.00000000      30.00000000      30.00000000      30.00000000      30.00000000      30.00000000      30.00000000      30.00000000      30.00000000      30.00000000      30.00000000      30.00000000      30.00000000      30.00000000      30.00000000      30.00000000      30.00000000      30.00000000      30.00000000      30.00000000      30.00000000      30.00000000      30.00000000      30.00000000      30.00000000      30.00000000      30.00000000      30.00000000      30.00000000      30.00000000      30.00000000      30.00000000      30.00000000      30.00000000      30.00000000      30.00000000      30.00000000      30.00000000      30.00000000      30.00000000      30.00000000      30.00000000      30.00000000      30.00000000      30.00000000      30.00000000      30.00000000      30.00000000      30.00000000      30.00000000      30.00000000      30.00000000      30.00000000      30.00000000      30.00000000      30.00000000      30.00000000      30.00000000      30.00000000      30.00000000      30.00000000      30.00000000      30.00000000      30.00000000      30.00000000      30.00000000      30.00000000      30.00000000      30.00000000      30.00000000      30.00000000      30.00000000      30.00000000      30.00000000      30.00000000      30.00000000      30.00000000      30.00000000      30.00000000      30.00000000      30.00000000      30.00000000      30.00000000      30.00000000      30.00000000      30.00000000      30.00000000      30.00000000      30.00000000      30.00000000      30.00000000      30.00000000      30.00000000      30.00000000      30.00000000      30.00000000      30.00000000      30.00000000      30.00000000      30.00000000      30.00000000      30.00000000      30.00000000      30.00000000      30.00000000      30.00000000      30.00000000      30.00000000      30.00000000      30.00000000      30.00000000      30.00000000      30.00000000      30.00000000      30.00000000      30.00000000      30.00000000      30.00000000      30.00000000      30.00000000      30.00000000      30.00000000      30.00000000      30.00000000      30.00000000      30.00000000      30.00000000      30.00000000      30.00000000      30.00000000      30.00000000      30.00000000      30.00000000      30.00000000      30.00000000      30.00000000      30.00000000      30.00000000      30.00000000      30.00000000      30.00000000      30.00000000      30.00000000      30.00000000      30.00000000      30.00000000      30.00000000      30.00000000      30.00000000      30.00000000      30.00000000      30.00000000      30.00000000      30.00000000      30.00000000      30.00000000      30.00000000      30.00000000      30.00000000      30.00000000      30.00000000      30.00000000      30.00000000      30.00000000      30.00000000      30.00000000      30.00000000      30.00000000      30.00000000      30.00000000      30.00000000      30.00000000      30.00000000      30.00000000      30.00000000      30.00000000      30.00000000      30.00000000      30.00000000      30.00000000      30.00000000      30.00000000      30.00000000      30.00000000      30.00000000      30.00000000      30.00000000      30.00000000      30.00000000      30.00000000      30.00000000      30.00000000      30.00000000      30.00000000      30.00000000      30.00000000      30.00000000      30.00000000      30.00000000      30.00000000      30.00000000      30.00000000      30.00000000      30.00000000      30.00000000      30.00000000      30.00000000      30.00000000      30.00000000      30.00000000      30.00000000      30.00000000      30.00000000      30.00000000      30.00000000      30.00000000      30.00000000      30.00000000      30.00000000      30.00000000      30.00000000      30.00000000      30.00000000      30.00000000      30.00000000      30.00000000      30.00000000      30.00000000      30.00000000      30.00000000      30.00000000      30.00000000      30.00000000      30.00000000      30.00000000      30.00000000      30.00000000      30.00000000      30.00000000      30.00000000      30.00000000      30.00000000      30.00000000      30.00000000      30.00000000      30.00000000      30.00000000      30.00000000      30.00000000      30.00000000      30.00000000      30.00000000      30.00000000      30.00000000      30.00000000      30.00000000      30.00000000      30.00000000      30.00000000      30.00000000      30.00000000      30.00000000      30.00000000      30.00000000      30.00000000      30.00000000      30.00000000      30.00000000      30.00000000      30.00000000      30.00000000      30.00000000      30.00000000      30.00000000      30.00000000      30.00000000      30.00000000      30.00000000      30.00000000      30.00000000      30.00000000      30.00000000      30.00000000      30.00000000      30.00000000      30.00000000      30.00000000      30.00000000      30.00000000