# File generated by Flopy version 3.3.5 on 03/03/2022 at 10:47:31.
BEGIN options
END options

BEGIN continuous  FILEOUT  sim/drn.csv
  BAR  DRN  BAR
  GAL  DRN  GAL
END continuous  FILEOUT  sim/drn.csv

