# File generated by Flopy version 3.3.5 on 03/03/2022 at 10:47:31.
BEGIN options
  BOUNDNAMES
  SAVE_FLOWS
  OBS6  FILEIN  ml.drn.obs
END options

BEGIN dimensions
  MAXBOUND  133
END dimensions

BEGIN period  1
    OPEN/CLOSE  'ext/drn_spd_1.txt'
END period  1

