# File generated by Flopy version 3.3.5 on 03/29/2022 at 18:29:10.
BEGIN options
END options

BEGIN continuous  FILEOUT  sim/drn.csv
  BAR  DRN  BAR
  GAL  DRN  GAL
END continuous  FILEOUT  sim/drn.csv

