# File generated by Flopy version 3.3.5 on 03/30/2022 at 15:16:27.
BEGIN options
END options

BEGIN continuous  FILEOUT  sim/drn.csv
  BAR  DRN  BAR
  GAL  DRN  GAL
END continuous  FILEOUT  sim/drn.csv

