# File generated by Flopy version 3.3.5 on 03/29/2022 at 18:29:09.
BEGIN options
  BOUNDNAMES
  SAVE_FLOWS
END options

BEGIN dimensions
  MAXBOUND  153
END dimensions

BEGIN period  1
    OPEN/CLOSE  '../com_ext/ghb_spd_1.txt'
END period  1

