# File generated by Flopy version 3.3.5 on 03/29/2022 at 18:29:09.
BEGIN griddata
  strt
    CONSTANT      15.00000000
END griddata

