# File generated by Flopy version 3.3.5 on 03/18/2022 at 18:19:41.
BEGIN griddata
  strt
    CONSTANT      15.00000000
END griddata

