# File generated by Flopy version 3.3.5 on 03/24/2022 at 18:05:08.
BEGIN griddata
  strt
    CONSTANT      15.00000000
END griddata

