# File generated by Flopy version 3.3.5 on 03/16/2022 at 21:59:58.
BEGIN griddata
  strt
    CONSTANT      15.00000000
END griddata

