# File generated by Flopy version 3.3.5 on 03/03/2022 at 10:47:30.
BEGIN griddata
  strt
    CONSTANT      15.00000000
END griddata

