# File generated by Flopy version 3.3.5 on 03/13/2022 at 22:03:18.
BEGIN griddata
  strt
    CONSTANT      15.00000000
END griddata

