# File generated by Flopy version 3.3.5 on 02/25/2022 at 10:37:00.
BEGIN griddata
  strt
    CONSTANT      15.00000000
END griddata

