# File generated by Flopy version 3.3.5 on 03/13/2022 at 22:03:18.
BEGIN options
  SAVE_FLOWS
  SAVE_SPECIFIC_DISCHARGE
END options

BEGIN griddata
  icelltype
    CONSTANT  0
  k
    OPEN/CLOSE  '../com_ext/k.txt'  FACTOR  1.0
END griddata

