# File generated by Flopy version 3.3.5 on 03/16/2022 at 21:59:58.
BEGIN options
  BUDGET  FILEOUT  ml.cbc
  HEAD  FILEOUT  ml.hds
END options

BEGIN period  1
  SAVE  head  last
  SAVE  budget  last
END period  1

