# File generated by Flopy version 3.3.5 on 02/25/2022 at 10:37:00.
BEGIN options
  BUDGET  FILEOUT  ml.cbc
  HEAD  FILEOUT  ml.hds
END options

BEGIN period  1
  SAVE  head  last
  SAVE  budget  last
  PRINT  head  last
END period  1

