# File generated by Flopy version 3.3.5 on 03/16/2022 at 21:59:58.
BEGIN options
  auxiliary  fid
  BOUNDNAMES
  SAVE_FLOWS
END options

BEGIN dimensions
  MAXBOUND  716
END dimensions

BEGIN period  1
    OPEN/CLOSE  'ext/riv_spd_1.txt'
END period  1

