# File generated by Flopy version 3.3.5 on 03/24/2022 at 18:05:09.
BEGIN options
  BOUNDNAMES
  SAVE_FLOWS
END options

BEGIN dimensions
  MAXBOUND  9
END dimensions

BEGIN period  1
    OPEN/CLOSE  'ext/well_spd_1.txt'
END period  1

