pcf
* control data
             restart      regularization
       561       310         5      6718         9
        23        30              single               point
   2.000000E+01  -3.000000E+00   3.000000E-01   1.000000E-02        -7
   1.000000E+01   1.000000E+01   1.000000E-03
   1.000000E-01
        30   1.000000E-02         3         3   1.000000E-02         3
         0         0         0
* singular value decomposition
         1
  10000000    1.000000E-06
1
* parameter groups
hk                     relative              1.5000000000E-01      0.0 always_3              2.0000000000E+00      best_fit              1.0000000000E-05      5.0000000000E-01      smaller              
criv                   relative              1.0000000000E-01      0.0 always_3              2.0000000000E+00      best_fit              1.0000000000E-05      5.0000000000E-01      smaller              
cdrn                   relative              1.0000000000E-01      0.0 always_3              2.0000000000E+00      best_fit              1.0000000000E-05      5.0000000000E-01      smaller              
cghb                   relative              1.0000000000E-01      0.0 always_3              2.0000000000E+00      best_fit              1.0000000000E-05      5.0000000000E-01      smaller              
rech                   relative              1.0000000000E-01      0.0 always_3              2.0000000000E+00      best_fit              1.0000000000E-05      5.0000000000E-01      smaller              
* parameter data
pname:hk_inst:0_ptype:pp_pstyle:m_x:409075.68_y:6432495.37_zone:1  log                   factor                1.0000000000E+00      1.0000000000E-05      1.0000000000E+05      hk                    1.0000000000E+00      0.0000000000E+00      1          
pname:hk_inst:0_ptype:pp_pstyle:m_x:407575.68_y:6431995.37_zone:1  tied                  factor                1.0000000000E+00      1.0000000000E-05      1.0000000000E+05      hk                    1.0000000000E+00      0.0000000000E+00      1          
pname:hk_inst:0_ptype:pp_pstyle:m_x:408075.68_y:6431995.37_zone:1  tied                  factor                1.0000000000E+00      1.0000000000E-05      1.0000000000E+05      hk                    1.0000000000E+00      0.0000000000E+00      1          
pname:hk_inst:0_ptype:pp_pstyle:m_x:408575.68_y:6431995.37_zone:1  tied                  factor                1.0000000000E+00      1.0000000000E-05      1.0000000000E+05      hk                    1.0000000000E+00      0.0000000000E+00      1          
pname:hk_inst:0_ptype:pp_pstyle:m_x:409075.68_y:6431995.37_zone:1  tied                  factor                1.0000000000E+00      1.0000000000E-05      1.0000000000E+05      hk                    1.0000000000E+00      0.0000000000E+00      1          
pname:hk_inst:0_ptype:pp_pstyle:m_x:409575.68_y:6431995.37_zone:1  tied                  factor                1.0000000000E+00      1.0000000000E-05      1.0000000000E+05      hk                    1.0000000000E+00      0.0000000000E+00      1          
pname:hk_inst:0_ptype:pp_pstyle:m_x:410075.68_y:6431995.37_zone:1  tied                  factor                1.0000000000E+00      1.0000000000E-05      1.0000000000E+05      hk                    1.0000000000E+00      0.0000000000E+00      1          
pname:hk_inst:0_ptype:pp_pstyle:m_x:407075.68_y:6431495.37_zone:1  tied                  factor                1.0000000000E+00      1.0000000000E-05      1.0000000000E+05      hk                    1.0000000000E+00      0.0000000000E+00      1          
pname:hk_inst:0_ptype:pp_pstyle:m_x:407575.68_y:6431495.37_zone:1  tied                  factor                1.0000000000E+00      1.0000000000E-05      1.0000000000E+05      hk                    1.0000000000E+00      0.0000000000E+00      1          
pname:hk_inst:0_ptype:pp_pstyle:m_x:408075.68_y:6431495.37_zone:1  tied                  factor                1.0000000000E+00      1.0000000000E-05      1.0000000000E+05      hk                    1.0000000000E+00      0.0000000000E+00      1          
pname:hk_inst:0_ptype:pp_pstyle:m_x:408575.68_y:6431495.37_zone:1  tied                  factor                1.0000000000E+00      1.0000000000E-05      1.0000000000E+05      hk                    1.0000000000E+00      0.0000000000E+00      1          
pname:hk_inst:0_ptype:pp_pstyle:m_x:409075.68_y:6431495.37_zone:1  tied                  factor                1.0000000000E+00      1.0000000000E-05      1.0000000000E+05      hk                    1.0000000000E+00      0.0000000000E+00      1          
pname:hk_inst:0_ptype:pp_pstyle:m_x:409575.68_y:6431495.37_zone:1  tied                  factor                1.0000000000E+00      1.0000000000E-05      1.0000000000E+05      hk                    1.0000000000E+00      0.0000000000E+00      1          
pname:hk_inst:0_ptype:pp_pstyle:m_x:410075.68_y:6431495.37_zone:1  tied                  factor                1.0000000000E+00      1.0000000000E-05      1.0000000000E+05      hk                    1.0000000000E+00      0.0000000000E+00      1          
pname:hk_inst:0_ptype:pp_pstyle:m_x:410575.68_y:6431495.37_zone:1  tied                  factor                1.0000000000E+00      1.0000000000E-05      1.0000000000E+05      hk                    1.0000000000E+00      0.0000000000E+00      1          
pname:hk_inst:0_ptype:pp_pstyle:m_x:407075.68_y:6430995.37_zone:1  tied                  factor                1.0000000000E+00      1.0000000000E-05      1.0000000000E+05      hk                    1.0000000000E+00      0.0000000000E+00      1          
pname:hk_inst:0_ptype:pp_pstyle:m_x:407575.68_y:6430995.37_zone:1  tied                  factor                1.0000000000E+00      1.0000000000E-05      1.0000000000E+05      hk                    1.0000000000E+00      0.0000000000E+00      1          
pname:hk_inst:0_ptype:pp_pstyle:m_x:408075.68_y:6430995.37_zone:1  tied                  factor                1.0000000000E+00      1.0000000000E-05      1.0000000000E+05      hk                    1.0000000000E+00      0.0000000000E+00      1          
pname:hk_inst:0_ptype:pp_pstyle:m_x:408575.68_y:6430995.37_zone:1  tied                  factor                1.0000000000E+00      1.0000000000E-05      1.0000000000E+05      hk                    1.0000000000E+00      0.0000000000E+00      1          
pname:hk_inst:0_ptype:pp_pstyle:m_x:409075.68_y:6430995.37_zone:1  tied                  factor                1.0000000000E+00      1.0000000000E-05      1.0000000000E+05      hk                    1.0000000000E+00      0.0000000000E+00      1          
pname:hk_inst:0_ptype:pp_pstyle:m_x:409575.68_y:6430995.37_zone:1  tied                  factor                1.0000000000E+00      1.0000000000E-05      1.0000000000E+05      hk                    1.0000000000E+00      0.0000000000E+00      1          
pname:hk_inst:0_ptype:pp_pstyle:m_x:410075.68_y:6430995.37_zone:1  tied                  factor                1.0000000000E+00      1.0000000000E-05      1.0000000000E+05      hk                    1.0000000000E+00      0.0000000000E+00      1          
pname:hk_inst:0_ptype:pp_pstyle:m_x:410575.68_y:6430995.37_zone:1  tied                  factor                1.0000000000E+00      1.0000000000E-05      1.0000000000E+05      hk                    1.0000000000E+00      0.0000000000E+00      1          
pname:hk_inst:0_ptype:pp_pstyle:m_x:411075.68_y:6430995.37_zone:1  tied                  factor                1.0000000000E+00      1.0000000000E-05      1.0000000000E+05      hk                    1.0000000000E+00      0.0000000000E+00      1          
pname:hk_inst:0_ptype:pp_pstyle:m_x:407075.68_y:6430495.37_zone:1  tied                  factor                1.0000000000E+00      1.0000000000E-05      1.0000000000E+05      hk                    1.0000000000E+00      0.0000000000E+00      1          
pname:hk_inst:0_ptype:pp_pstyle:m_x:407575.68_y:6430495.37_zone:1  tied                  factor                1.0000000000E+00      1.0000000000E-05      1.0000000000E+05      hk                    1.0000000000E+00      0.0000000000E+00      1          
pname:hk_inst:0_ptype:pp_pstyle:m_x:408075.68_y:6430495.37_zone:1  tied                  factor                1.0000000000E+00      1.0000000000E-05      1.0000000000E+05      hk                    1.0000000000E+00      0.0000000000E+00      1          
pname:hk_inst:0_ptype:pp_pstyle:m_x:408575.68_y:6430495.37_zone:1  tied                  factor                1.0000000000E+00      1.0000000000E-05      1.0000000000E+05      hk                    1.0000000000E+00      0.0000000000E+00      1          
pname:hk_inst:0_ptype:pp_pstyle:m_x:409075.68_y:6430495.37_zone:1  tied                  factor                1.0000000000E+00      1.0000000000E-05      1.0000000000E+05      hk                    1.0000000000E+00      0.0000000000E+00      1          
pname:hk_inst:0_ptype:pp_pstyle:m_x:409575.68_y:6430495.37_zone:1  tied                  factor                1.0000000000E+00      1.0000000000E-05      1.0000000000E+05      hk                    1.0000000000E+00      0.0000000000E+00      1          
pname:hk_inst:0_ptype:pp_pstyle:m_x:410075.68_y:6430495.37_zone:1  tied                  factor                1.0000000000E+00      1.0000000000E-05      1.0000000000E+05      hk                    1.0000000000E+00      0.0000000000E+00      1          
pname:hk_inst:0_ptype:pp_pstyle:m_x:410575.68_y:6430495.37_zone:1  tied                  factor                1.0000000000E+00      1.0000000000E-05      1.0000000000E+05      hk                    1.0000000000E+00      0.0000000000E+00      1          
pname:hk_inst:0_ptype:pp_pstyle:m_x:411075.68_y:6430495.37_zone:1  tied                  factor                1.0000000000E+00      1.0000000000E-05      1.0000000000E+05      hk                    1.0000000000E+00      0.0000000000E+00      1          
pname:hk_inst:0_ptype:pp_pstyle:m_x:411575.68_y:6430495.37_zone:1  tied                  factor                1.0000000000E+00      1.0000000000E-05      1.0000000000E+05      hk                    1.0000000000E+00      0.0000000000E+00      1          
pname:hk_inst:0_ptype:pp_pstyle:m_x:406575.68_y:6429995.37_zone:1  tied                  factor                1.0000000000E+00      1.0000000000E-05      1.0000000000E+05      hk                    1.0000000000E+00      0.0000000000E+00      1          
pname:hk_inst:0_ptype:pp_pstyle:m_x:407075.68_y:6429995.37_zone:1  tied                  factor                1.0000000000E+00      1.0000000000E-05      1.0000000000E+05      hk                    1.0000000000E+00      0.0000000000E+00      1          
pname:hk_inst:0_ptype:pp_pstyle:m_x:407575.68_y:6429995.37_zone:1  tied                  factor                1.0000000000E+00      1.0000000000E-05      1.0000000000E+05      hk                    1.0000000000E+00      0.0000000000E+00      1          
pname:hk_inst:0_ptype:pp_pstyle:m_x:408075.68_y:6429995.37_zone:1  tied                  factor                1.0000000000E+00      1.0000000000E-05      1.0000000000E+05      hk                    1.0000000000E+00      0.0000000000E+00      1          
pname:hk_inst:0_ptype:pp_pstyle:m_x:408575.68_y:6429995.37_zone:1  tied                  factor                1.0000000000E+00      1.0000000000E-05      1.0000000000E+05      hk                    1.0000000000E+00      0.0000000000E+00      1          
pname:hk_inst:0_ptype:pp_pstyle:m_x:409075.68_y:6429995.37_zone:1  tied                  factor                1.0000000000E+00      1.0000000000E-05      1.0000000000E+05      hk                    1.0000000000E+00      0.0000000000E+00      1          
pname:hk_inst:0_ptype:pp_pstyle:m_x:409575.68_y:6429995.37_zone:1  tied                  factor                1.0000000000E+00      1.0000000000E-05      1.0000000000E+05      hk                    1.0000000000E+00      0.0000000000E+00      1          
pname:hk_inst:0_ptype:pp_pstyle:m_x:410075.68_y:6429995.37_zone:1  tied                  factor                1.0000000000E+00      1.0000000000E-05      1.0000000000E+05      hk                    1.0000000000E+00      0.0000000000E+00      1          
pname:hk_inst:0_ptype:pp_pstyle:m_x:410575.68_y:6429995.37_zone:1  tied                  factor                1.0000000000E+00      1.0000000000E-05      1.0000000000E+05      hk                    1.0000000000E+00      0.0000000000E+00      1          
pname:hk_inst:0_ptype:pp_pstyle:m_x:411075.68_y:6429995.37_zone:1  tied                  factor                1.0000000000E+00      1.0000000000E-05      1.0000000000E+05      hk                    1.0000000000E+00      0.0000000000E+00      1          
pname:hk_inst:0_ptype:pp_pstyle:m_x:411575.68_y:6429995.37_zone:1  tied                  factor                1.0000000000E+00      1.0000000000E-05      1.0000000000E+05      hk                    1.0000000000E+00      0.0000000000E+00      1          
pname:hk_inst:0_ptype:pp_pstyle:m_x:412075.68_y:6429995.37_zone:1  tied                  factor                1.0000000000E+00      1.0000000000E-05      1.0000000000E+05      hk                    1.0000000000E+00      0.0000000000E+00      1          
pname:hk_inst:0_ptype:pp_pstyle:m_x:412575.68_y:6429995.37_zone:1  tied                  factor                1.0000000000E+00      1.0000000000E-05      1.0000000000E+05      hk                    1.0000000000E+00      0.0000000000E+00      1          
pname:hk_inst:0_ptype:pp_pstyle:m_x:413075.68_y:6429995.37_zone:1  tied                  factor                1.0000000000E+00      1.0000000000E-05      1.0000000000E+05      hk                    1.0000000000E+00      0.0000000000E+00      1          
pname:hk_inst:0_ptype:pp_pstyle:m_x:406575.68_y:6429495.37_zone:1  tied                  factor                1.0000000000E+00      1.0000000000E-05      1.0000000000E+05      hk                    1.0000000000E+00      0.0000000000E+00      1          
pname:hk_inst:0_ptype:pp_pstyle:m_x:407075.68_y:6429495.37_zone:1  tied                  factor                1.0000000000E+00      1.0000000000E-05      1.0000000000E+05      hk                    1.0000000000E+00      0.0000000000E+00      1          
pname:hk_inst:0_ptype:pp_pstyle:m_x:407575.68_y:6429495.37_zone:1  tied                  factor                1.0000000000E+00      1.0000000000E-05      1.0000000000E+05      hk                    1.0000000000E+00      0.0000000000E+00      1          
pname:hk_inst:0_ptype:pp_pstyle:m_x:408075.68_y:6429495.37_zone:1  tied                  factor                1.0000000000E+00      1.0000000000E-05      1.0000000000E+05      hk                    1.0000000000E+00      0.0000000000E+00      1          
pname:hk_inst:0_ptype:pp_pstyle:m_x:408575.68_y:6429495.37_zone:1  tied                  factor                1.0000000000E+00      1.0000000000E-05      1.0000000000E+05      hk                    1.0000000000E+00      0.0000000000E+00      1          
pname:hk_inst:0_ptype:pp_pstyle:m_x:409075.68_y:6429495.37_zone:1  tied                  factor                1.0000000000E+00      1.0000000000E-05      1.0000000000E+05      hk                    1.0000000000E+00      0.0000000000E+00      1          
pname:hk_inst:0_ptype:pp_pstyle:m_x:409575.68_y:6429495.37_zone:1  tied                  factor                1.0000000000E+00      1.0000000000E-05      1.0000000000E+05      hk                    1.0000000000E+00      0.0000000000E+00      1          
pname:hk_inst:0_ptype:pp_pstyle:m_x:410075.68_y:6429495.37_zone:1  tied                  factor                1.0000000000E+00      1.0000000000E-05      1.0000000000E+05      hk                    1.0000000000E+00      0.0000000000E+00      1          
pname:hk_inst:0_ptype:pp_pstyle:m_x:410575.68_y:6429495.37_zone:1  tied                  factor                1.0000000000E+00      1.0000000000E-05      1.0000000000E+05      hk                    1.0000000000E+00      0.0000000000E+00      1          
pname:hk_inst:0_ptype:pp_pstyle:m_x:411075.68_y:6429495.37_zone:1  tied                  factor                1.0000000000E+00      1.0000000000E-05      1.0000000000E+05      hk                    1.0000000000E+00      0.0000000000E+00      1          
pname:hk_inst:0_ptype:pp_pstyle:m_x:411575.68_y:6429495.37_zone:1  tied                  factor                1.0000000000E+00      1.0000000000E-05      1.0000000000E+05      hk                    1.0000000000E+00      0.0000000000E+00      1          
pname:hk_inst:0_ptype:pp_pstyle:m_x:412075.68_y:6429495.37_zone:1  tied                  factor                1.0000000000E+00      1.0000000000E-05      1.0000000000E+05      hk                    1.0000000000E+00      0.0000000000E+00      1          
pname:hk_inst:0_ptype:pp_pstyle:m_x:412575.68_y:6429495.37_zone:1  tied                  factor                1.0000000000E+00      1.0000000000E-05      1.0000000000E+05      hk                    1.0000000000E+00      0.0000000000E+00      1          
pname:hk_inst:0_ptype:pp_pstyle:m_x:413075.68_y:6429495.37_zone:1  tied                  factor                1.0000000000E+00      1.0000000000E-05      1.0000000000E+05      hk                    1.0000000000E+00      0.0000000000E+00      1          
pname:hk_inst:0_ptype:pp_pstyle:m_x:413575.68_y:6429495.37_zone:1  tied                  factor                1.0000000000E+00      1.0000000000E-05      1.0000000000E+05      hk                    1.0000000000E+00      0.0000000000E+00      1          
pname:hk_inst:0_ptype:pp_pstyle:m_x:406075.68_y:6428995.37_zone:1  tied                  factor                1.0000000000E+00      1.0000000000E-05      1.0000000000E+05      hk                    1.0000000000E+00      0.0000000000E+00      1          
pname:hk_inst:0_ptype:pp_pstyle:m_x:406575.68_y:6428995.37_zone:1  tied                  factor                1.0000000000E+00      1.0000000000E-05      1.0000000000E+05      hk                    1.0000000000E+00      0.0000000000E+00      1          
pname:hk_inst:0_ptype:pp_pstyle:m_x:407075.68_y:6428995.37_zone:1  tied                  factor                1.0000000000E+00      1.0000000000E-05      1.0000000000E+05      hk                    1.0000000000E+00      0.0000000000E+00      1          
pname:hk_inst:0_ptype:pp_pstyle:m_x:407575.68_y:6428995.37_zone:1  tied                  factor                1.0000000000E+00      1.0000000000E-05      1.0000000000E+05      hk                    1.0000000000E+00      0.0000000000E+00      1          
pname:hk_inst:0_ptype:pp_pstyle:m_x:409575.68_y:6428995.37_zone:1  tied                  factor                1.0000000000E+00      1.0000000000E-05      1.0000000000E+05      hk                    1.0000000000E+00      0.0000000000E+00      1          
pname:hk_inst:0_ptype:pp_pstyle:m_x:410075.68_y:6428995.37_zone:1  tied                  factor                1.0000000000E+00      1.0000000000E-05      1.0000000000E+05      hk                    1.0000000000E+00      0.0000000000E+00      1          
pname:hk_inst:0_ptype:pp_pstyle:m_x:410575.68_y:6428995.37_zone:1  tied                  factor                1.0000000000E+00      1.0000000000E-05      1.0000000000E+05      hk                    1.0000000000E+00      0.0000000000E+00      1          
pname:hk_inst:0_ptype:pp_pstyle:m_x:411075.68_y:6428995.37_zone:1  tied                  factor                1.0000000000E+00      1.0000000000E-05      1.0000000000E+05      hk                    1.0000000000E+00      0.0000000000E+00      1          
pname:hk_inst:0_ptype:pp_pstyle:m_x:411575.68_y:6428995.37_zone:1  tied                  factor                1.0000000000E+00      1.0000000000E-05      1.0000000000E+05      hk                    1.0000000000E+00      0.0000000000E+00      1          
pname:hk_inst:0_ptype:pp_pstyle:m_x:412075.68_y:6428995.37_zone:1  tied                  factor                1.0000000000E+00      1.0000000000E-05      1.0000000000E+05      hk                    1.0000000000E+00      0.0000000000E+00      1          
pname:hk_inst:0_ptype:pp_pstyle:m_x:412575.68_y:6428995.37_zone:1  tied                  factor                1.0000000000E+00      1.0000000000E-05      1.0000000000E+05      hk                    1.0000000000E+00      0.0000000000E+00      1          
pname:hk_inst:0_ptype:pp_pstyle:m_x:413075.68_y:6428995.37_zone:1  tied                  factor                1.0000000000E+00      1.0000000000E-05      1.0000000000E+05      hk                    1.0000000000E+00      0.0000000000E+00      1          
pname:hk_inst:0_ptype:pp_pstyle:m_x:413575.68_y:6428995.37_zone:1  tied                  factor                1.0000000000E+00      1.0000000000E-05      1.0000000000E+05      hk                    1.0000000000E+00      0.0000000000E+00      1          
pname:hk_inst:0_ptype:pp_pstyle:m_x:406075.68_y:6428495.37_zone:1  tied                  factor                1.0000000000E+00      1.0000000000E-05      1.0000000000E+05      hk                    1.0000000000E+00      0.0000000000E+00      1          
pname:hk_inst:0_ptype:pp_pstyle:m_x:406575.68_y:6428495.37_zone:1  tied                  factor                1.0000000000E+00      1.0000000000E-05      1.0000000000E+05      hk                    1.0000000000E+00      0.0000000000E+00      1          
pname:hk_inst:0_ptype:pp_pstyle:m_x:407075.68_y:6428495.37_zone:1  tied                  factor                1.0000000000E+00      1.0000000000E-05      1.0000000000E+05      hk                    1.0000000000E+00      0.0000000000E+00      1          
pname:hk_inst:0_ptype:pp_pstyle:m_x:407575.68_y:6428495.37_zone:1  tied                  factor                1.0000000000E+00      1.0000000000E-05      1.0000000000E+05      hk                    1.0000000000E+00      0.0000000000E+00      1          
pname:hk_inst:0_ptype:pp_pstyle:m_x:409575.68_y:6428495.37_zone:1  tied                  factor                1.0000000000E+00      1.0000000000E-05      1.0000000000E+05      hk                    1.0000000000E+00      0.0000000000E+00      1          
pname:hk_inst:0_ptype:pp_pstyle:m_x:410075.68_y:6428495.37_zone:1  tied                  factor                1.0000000000E+00      1.0000000000E-05      1.0000000000E+05      hk                    1.0000000000E+00      0.0000000000E+00      1          
pname:hk_inst:0_ptype:pp_pstyle:m_x:410575.68_y:6428495.37_zone:1  tied                  factor                1.0000000000E+00      1.0000000000E-05      1.0000000000E+05      hk                    1.0000000000E+00      0.0000000000E+00      1          
pname:hk_inst:0_ptype:pp_pstyle:m_x:411075.68_y:6428495.37_zone:1  tied                  factor                1.0000000000E+00      1.0000000000E-05      1.0000000000E+05      hk                    1.0000000000E+00      0.0000000000E+00      1          
pname:hk_inst:0_ptype:pp_pstyle:m_x:411575.68_y:6428495.37_zone:1  tied                  factor                1.0000000000E+00      1.0000000000E-05      1.0000000000E+05      hk                    1.0000000000E+00      0.0000000000E+00      1          
pname:hk_inst:0_ptype:pp_pstyle:m_x:412075.68_y:6428495.37_zone:1  tied                  factor                1.0000000000E+00      1.0000000000E-05      1.0000000000E+05      hk                    1.0000000000E+00      0.0000000000E+00      1          
pname:hk_inst:0_ptype:pp_pstyle:m_x:412575.68_y:6428495.37_zone:1  tied                  factor                1.0000000000E+00      1.0000000000E-05      1.0000000000E+05      hk                    1.0000000000E+00      0.0000000000E+00      1          
pname:hk_inst:0_ptype:pp_pstyle:m_x:413075.68_y:6428495.37_zone:1  tied                  factor                1.0000000000E+00      1.0000000000E-05      1.0000000000E+05      hk                    1.0000000000E+00      0.0000000000E+00      1          
pname:hk_inst:0_ptype:pp_pstyle:m_x:406075.68_y:6427995.37_zone:1  tied                  factor                1.0000000000E+00      1.0000000000E-05      1.0000000000E+05      hk                    1.0000000000E+00      0.0000000000E+00      1          
pname:hk_inst:0_ptype:pp_pstyle:m_x:406575.68_y:6427995.37_zone:1  tied                  factor                1.0000000000E+00      1.0000000000E-05      1.0000000000E+05      hk                    1.0000000000E+00      0.0000000000E+00      1          
pname:hk_inst:0_ptype:pp_pstyle:m_x:407075.68_y:6427995.37_zone:1  tied                  factor                1.0000000000E+00      1.0000000000E-05      1.0000000000E+05      hk                    1.0000000000E+00      0.0000000000E+00      1          
pname:hk_inst:0_ptype:pp_pstyle:m_x:407575.68_y:6427995.37_zone:1  tied                  factor                1.0000000000E+00      1.0000000000E-05      1.0000000000E+05      hk                    1.0000000000E+00      0.0000000000E+00      1          
pname:hk_inst:0_ptype:pp_pstyle:m_x:409575.68_y:6427995.37_zone:1  tied                  factor                1.0000000000E+00      1.0000000000E-05      1.0000000000E+05      hk                    1.0000000000E+00      0.0000000000E+00      1          
pname:hk_inst:0_ptype:pp_pstyle:m_x:410075.68_y:6427995.37_zone:1  tied                  factor                1.0000000000E+00      1.0000000000E-05      1.0000000000E+05      hk                    1.0000000000E+00      0.0000000000E+00      1          
pname:hk_inst:0_ptype:pp_pstyle:m_x:410575.68_y:6427995.37_zone:1  tied                  factor                1.0000000000E+00      1.0000000000E-05      1.0000000000E+05      hk                    1.0000000000E+00      0.0000000000E+00      1          
pname:hk_inst:0_ptype:pp_pstyle:m_x:411075.68_y:6427995.37_zone:1  tied                  factor                1.0000000000E+00      1.0000000000E-05      1.0000000000E+05      hk                    1.0000000000E+00      0.0000000000E+00      1          
pname:hk_inst:0_ptype:pp_pstyle:m_x:411575.68_y:6427995.37_zone:1  tied                  factor                1.0000000000E+00      1.0000000000E-05      1.0000000000E+05      hk                    1.0000000000E+00      0.0000000000E+00      1          
pname:hk_inst:0_ptype:pp_pstyle:m_x:412075.68_y:6427995.37_zone:1  tied                  factor                1.0000000000E+00      1.0000000000E-05      1.0000000000E+05      hk                    1.0000000000E+00      0.0000000000E+00      1          
pname:hk_inst:0_ptype:pp_pstyle:m_x:412575.68_y:6427995.37_zone:1  tied                  factor                1.0000000000E+00      1.0000000000E-05      1.0000000000E+05      hk                    1.0000000000E+00      0.0000000000E+00      1          
pname:hk_inst:0_ptype:pp_pstyle:m_x:413075.68_y:6427995.37_zone:1  tied                  factor                1.0000000000E+00      1.0000000000E-05      1.0000000000E+05      hk                    1.0000000000E+00      0.0000000000E+00      1          
pname:hk_inst:0_ptype:pp_pstyle:m_x:406075.68_y:6427495.37_zone:1  tied                  factor                1.0000000000E+00      1.0000000000E-05      1.0000000000E+05      hk                    1.0000000000E+00      0.0000000000E+00      1          
pname:hk_inst:0_ptype:pp_pstyle:m_x:406575.68_y:6427495.37_zone:1  tied                  factor                1.0000000000E+00      1.0000000000E-05      1.0000000000E+05      hk                    1.0000000000E+00      0.0000000000E+00      1          
pname:hk_inst:0_ptype:pp_pstyle:m_x:407075.68_y:6427495.37_zone:1  tied                  factor                1.0000000000E+00      1.0000000000E-05      1.0000000000E+05      hk                    1.0000000000E+00      0.0000000000E+00      1          
pname:hk_inst:0_ptype:pp_pstyle:m_x:407575.68_y:6427495.37_zone:1  tied                  factor                1.0000000000E+00      1.0000000000E-05      1.0000000000E+05      hk                    1.0000000000E+00      0.0000000000E+00      1          
pname:hk_inst:0_ptype:pp_pstyle:m_x:408075.68_y:6427495.37_zone:1  tied                  factor                1.0000000000E+00      1.0000000000E-05      1.0000000000E+05      hk                    1.0000000000E+00      0.0000000000E+00      1          
pname:hk_inst:0_ptype:pp_pstyle:m_x:408575.68_y:6427495.37_zone:1  tied                  factor                1.0000000000E+00      1.0000000000E-05      1.0000000000E+05      hk                    1.0000000000E+00      0.0000000000E+00      1          
pname:hk_inst:0_ptype:pp_pstyle:m_x:409075.68_y:6427495.37_zone:1  tied                  factor                1.0000000000E+00      1.0000000000E-05      1.0000000000E+05      hk                    1.0000000000E+00      0.0000000000E+00      1          
pname:hk_inst:0_ptype:pp_pstyle:m_x:409575.68_y:6427495.37_zone:1  tied                  factor                1.0000000000E+00      1.0000000000E-05      1.0000000000E+05      hk                    1.0000000000E+00      0.0000000000E+00      1          
pname:hk_inst:0_ptype:pp_pstyle:m_x:410075.68_y:6427495.37_zone:1  tied                  factor                1.0000000000E+00      1.0000000000E-05      1.0000000000E+05      hk                    1.0000000000E+00      0.0000000000E+00      1          
pname:hk_inst:0_ptype:pp_pstyle:m_x:410575.68_y:6427495.37_zone:1  tied                  factor                1.0000000000E+00      1.0000000000E-05      1.0000000000E+05      hk                    1.0000000000E+00      0.0000000000E+00      1          
pname:hk_inst:0_ptype:pp_pstyle:m_x:411075.68_y:6427495.37_zone:1  tied                  factor                1.0000000000E+00      1.0000000000E-05      1.0000000000E+05      hk                    1.0000000000E+00      0.0000000000E+00      1          