# File generated by Flopy version 3.3.5 on 02/25/2022 at 10:37:10.
BEGIN options
END options

BEGIN timing
  TDIS6  mfsim.tdis
END timing

BEGIN models
  gwf6  ml.nam  ml
END models

BEGIN exchanges
END exchanges

BEGIN solutiongroup  1
  ims6  mfsim.ims  ml
END solutiongroup  1

