# File generated by Flopy version 3.3.5 on 02/25/2022 at 10:37:12.
BEGIN options
  auxiliary  fid
  BOUNDNAMES
  SAVE_FLOWS
END options

BEGIN dimensions
  MAXBOUND  716
END dimensions

BEGIN period  1
    OPEN/CLOSE  'ext/riv_spd_1.txt'
END period  1

