# File generated by Flopy version 3.3.5 on 05/30/2022 at 17:41:18.
BEGIN options
  BOUNDNAMES
  SAVE_FLOWS
END options

BEGIN dimensions
  MAXBOUND  153
END dimensions

BEGIN period  1
    OPEN/CLOSE  '../com_ext/ghb_spd_1.txt'
END period  1

