# File generated by Flopy version 3.3.5 on 05/30/2022 at 17:41:18.
BEGIN griddata
  strt
    CONSTANT      15.00000000
END griddata

