# File generated by Flopy version 3.3.5 on 04/25/2022 at 00:16:19.
BEGIN options
  READASARRAYS
  SAVE_FLOWS
END options

BEGIN period  1
  recharge
    OPEN/CLOSE  '../com_ext/rech_spd_1.txt'  FACTOR  1.0
END period  1

