# File generated by Flopy version 3.3.5 on 02/25/2022 at 10:37:04.
BEGIN options
  TIME_UNITS  seconds
END options

BEGIN dimensions
  NPER  1
END dimensions

BEGIN perioddata
       3.00000000  1       1.00000000
END perioddata

