# File generated by Flopy version 3.3.5 on 02/25/2022 at 10:37:04.
BEGIN options
END options

