# File generated by Flopy version 3.3.5 on 02/25/2022 at 10:37:06.
BEGIN options
END options

BEGIN continuous  FILEOUT  sim/drn.csv
  BAR  DRN  BAR
  GAL  DRN  GAL
END continuous  FILEOUT  sim/drn.csv

