# MPSIM package for MODPATH 7 generated by Flopy 3.3.5
mp.mpnam
mp.mplst
4 2 2 2 1 0
mp.mpend
mp.mppth
mp.timeseries
0
1
0
2
1
100 0.01
1
1
4
R20
1
0.0
INTERNAL
1
2
200 1
         0      9616               1               0             0.5               0         0
         1      9627       0.0201005               0             0.5               0         0
         2      9627        0.040201               0             0.5               0         0
         3      9627      0.06030151               0             0.5               0         0
         4      9627      0.08040201               0             0.5               0         0
         5      9627       0.1005025               0             0.5               0         0
         6      9627        0.120603               0             0.5               0         0
         7      9627       0.1407035               0             0.5               0         0
         8      9627        0.160804               0             0.5               0         0
         9      9627       0.1809045               0             0.5               0         0
        10      9627        0.201005               0             0.5               0         0
        11      9627       0.2211055               0             0.5               0         0
        12      9627        0.241206               0             0.5               0         0
        13      9627       0.2613065               0             0.5               0         0
        14      9627        0.281407               0             0.5               0         0
        15      9627       0.3015075               0             0.5               0         0
        16      9627        0.321608               0             0.5               0         0
        17      9627       0.3417085               0             0.5               0         0
        18      9627        0.361809               0             0.5               0         0
        19      9627       0.3819095               0             0.5               0         0
        20      9627       0.4020101               0             0.5               0         0
        21      9627       0.4221106               0             0.5               0         0
        22      9627       0.4422111               0             0.5               0         0
        23      9627       0.4623116               0             0.5               0         0
        24      9627       0.4824121               0             0.5               0         0
        25      9627       0.5025126               0             0.5               0         0
        26      9627        0.522613               0             0.5               0         0
        27      9627       0.5427136               0             0.5               0         0
        28      9627       0.5628141               0             0.5               0         0
        29      9627       0.5829146               0             0.5               0         0
        30      9627       0.6030151               0             0.5               0         0
        31      9627       0.6231156               0             0.5               0         0
        32      9627       0.6432161               0             0.5               0         0
        33      9627       0.6633166               0             0.5               0         0
        34      9627       0.6834171               0             0.5               0         0
        35      9627       0.7035176               0             0.5               0         0
        36      9627       0.7236181               0             0.5               0         0
        37      9627       0.7437186               0             0.5               0         0
        38      9627       0.7638191               0             0.5               0         0
        39      9627       0.7839196               0             0.5               0         0
        40      9627       0.8040201               0             0.5               0         0
        41      9627       0.8241206               0             0.5               0         0
        42      9627       0.8442211               0             0.5               0         0
        43      9627       0.8643216               0             0.5               0         0
        44      9627       0.8844221               0             0.5               0         0
        45      9627       0.9045226               0             0.5               0         0
        46      9627       0.9246231               0             0.5               0         0
        47      9627       0.9447236               0             0.5               0         0
        48      9627       0.9648241               0             0.5               0         0
        49      9627       0.9849246               0             0.5               0         0
        50      9629               1       0.9949749             0.5               0         0
        51      9629               1       0.9748744             0.5               0         0
        52      9629               1       0.9547738             0.5               0         0
        53      9629               1       0.9346734             0.5               0         0
        54      9629               1       0.9145728             0.5               0         0
        55      9629               1       0.8944724             0.5               0         0
        56      9629               1       0.8743719             0.5               0         0
        57      9629               1       0.8542714             0.5               0         0
        58      9629               1       0.8341709             0.5               0         0
        59      9629               1       0.8140703             0.5               0         0
        60      9629               1       0.7939699             0.5               0         0
        61      9629               1       0.7738693             0.5               0         0
        62      9629               1       0.7537689             0.5               0         0
        63      9629               1       0.7336683             0.5               0         0
        64      9629               1       0.7135679             0.5               0         0
        65      9629               1       0.6934673             0.5               0         0
        66      9629               1       0.6733668             0.5               0         0
        67      9629               1       0.6532663             0.5               0         0
        68      9629               1       0.6331658             0.5               0         0
        69      9629               1       0.6130653             0.5               0         0
        70      9629               1       0.5929648             0.5               0         0
        71      9629               1       0.5728643             0.5               0         0
        72      9629               1       0.5527638             0.5               0         0
        73      9629               1       0.5326633             0.5               0         0
        74      9629               1       0.5125628             0.5               0         0
        75      9629               1       0.4924623             0.5               0         0
        76      9629               1       0.4723618             0.5               0         0
        77      9629               1       0.4522613             0.5               0         0
        78      9629               1       0.4321608             0.5               0         0
        79      9629               1       0.4120603             0.5               0         0
        80      9629               1       0.3919598             0.5               0         0
        81      9629               1       0.3718593             0.5               0         0
        82      9629               1       0.3517588             0.5               0         0
        83      9629               1       0.3316583             0.5               0         0
        84      9629               1       0.3115578             0.5               0         0
        85      9629               1       0.2914573             0.5               0         0
        86      9629               1       0.2713568             0.5               0         0
        87      9629               1       0.2512563             0.5               0         0
        88      9629               1       0.2311558             0.5               0         0
        89      9629               1       0.2110553             0.5               0         0
        90      9629               1       0.1909548             0.5               0         0
        91      9629               1       0.1708543             0.5               0         0
        92      9629               1       0.1507538             0.5               0         0
        93      9629               1       0.1306533             0.5               0         0
        94      9629               1       0.1105528             0.5               0         0
        95      9629               1      0.09045226             0.5               0         0
        96      9629               1      0.07035176             0.5               0         0
        97      9629               1      0.05025126             0.5               0         0
        98      9629               1      0.03015075             0.5               0         0
        99      9629               1      0.01005025             0.5               0         0
       100      9629       0.9899498               0             0.5               0         0
       101      9629       0.9698492               0             0.5               0         0
       102      9629       0.9497488               0             0.5               0         0
       103      9629       0.9296482               0             0.5               0         0
       104      9629       0.9095477               0             0.5               0         0
       105      9629       0.8894472               0             0.5               0         0
       106      9629       0.8693467               0             0.5               0         0
       107      9629       0.8492462               0             0.5               0         0
       108      9629       0.8291457               0             0.5               0         0
       109      9629       0.8090453               0             0.5               0         0
       110      9629       0.7889447               0             0.5               0         0
       111      9629       0.7688442               0             0.5               0         0
       112      9629       0.7487437               0             0.5               0         0
       113      9629       0.7286432               0             0.5               0         0
       114      9629       0.7085427               0             0.5               0         0
       115      9629       0.6884422               0             0.5               0         0
       116      9629       0.6683417               0             0.5               0         0
       117      9629       0.6482412               0             0.5               0         0
       118      9629       0.6281407               0             0.5               0         0
       119      9629       0.6080402               0             0.5               0         0
       120      9629       0.5879397               0             0.5               0         0
       121      9629       0.5678392               0             0.5               0         0
       122      9629       0.5477387               0             0.5               0         0
       123      9629       0.5276382               0             0.5               0         0
       124      9629       0.5075377               0             0.5               0         0
       125      9629       0.4874372               0             0.5               0         0
       126      9629       0.4673367               0             0.5               0         0
       127      9629       0.4472362               0             0.5               0         0
       128      9629       0.4271357               0             0.5               0         0
       129      9629       0.4070352               0             0.5               0         0
       130      9629       0.3869347               0             0.5               0         0
       131      9629       0.3668342               0             0.5               0         0
       132      9629       0.3467337               0             0.5               0         0
       133      9629       0.3266332               0             0.5               0         0
       134      9629       0.3065327               0             0.5               0         0
       135      9629       0.2864321               0             0.5               0         0
       136      9629       0.2663317               0             0.5               0         0
       137      9629       0.2462312               0             0.5               0         0
       138      9629       0.2261306               0             0.5               0         0
       139      9629       0.2060301               0             0.5               0         0
       140      9629       0.1859296               0             0.5               0         0
       141      9629       0.1658292               0             0.5               0         0
       142      9629       0.1457286               0             0.5               0         0
       143      9629       0.1256281               0             0.5               0         0
       144      9629       0.1055276               0             0.5               0         0
       145      9629      0.08542714               0             0.5               0         0
       146      9629      0.06532663               0             0.5               0         0
       147      9629      0.04522613               0             0.5               0         0
       148      9629      0.02512563               0             0.5               0         0
       149      9629     0.005025126               0             0.5               0         0
       150      9618               1      0.01507538             0.5               0         0
       151      9618               1      0.03517588             0.5               0         0
       152      9618               1      0.05527638             0.5               0         0
       153      9618               1      0.07537688             0.5               0         0
       154      9618               1      0.09547739             0.5               0         0
       155      9618               1       0.1155779             0.5               0         0
       156      9618               1       0.1356784             0.5               0         0
       157      9618               1       0.1557789             0.5               0         0
       158      9618               1       0.1758794             0.5               0         0
       159      9618               1       0.1959799             0.5               0         0
       160      9618               1       0.2160804             0.5               0         0
       161      9618               1       0.2361809             0.5               0         0
       162      9618               1       0.2562814             0.5               0         0
       163      9618               1       0.2763819             0.5               0         0
       164      9618               1       0.2964824             0.5               0         0
       165      9618               1       0.3165829             0.5               0         0
       166      9618               1       0.3366834             0.5               0         0
       167      9618               1       0.3567839             0.5               0         0
       168      9618               1       0.3768844             0.5               0         0
       169      9618               1       0.3969849             0.5               0         0
       170      9618               1       0.4170854             0.5               0         0
       171      9618               1       0.4371859             0.5               0         0
       172      9618               1       0.4572864             0.5               0         0
       173      9618               1       0.4773869             0.5               0         0
       174      9618               1       0.4974874             0.5               0         0
       175      9618               1        0.517588             0.5               0         0
       176      9618               1       0.5376884             0.5               0         0
       177      9618               1        0.557789             0.5               0         0
       178      9618               1       0.5778894             0.5               0         0
       179      9618               1         0.59799             0.5               0         0
       180      9618               1       0.6180905             0.5               0         0
       181      9618               1       0.6381909             0.5               0         0
       182      9618               1       0.6582915             0.5               0         0
       183      9618               1       0.6783919             0.5               0         0
       184      9618               1       0.6984925             0.5               0         0
       185      9618               1       0.7185929             0.5               0         0
       186      9618               1       0.7386935             0.5               0         0
       187      9618               1        0.758794             0.5               0         0
       188      9618               1       0.7788945             0.5               0         0
       189      9618               1        0.798995             0.5               0         0
       190      9618               1       0.8190955             0.5               0         0
       191      9618               1        0.839196             0.5               0         0
       192      9618               1       0.8592965             0.5               0         0
       193      9618               1        0.879397             0.5               0         0
       194      9618               1       0.8994975             0.5               0         0
       195      9618               1        0.919598             0.5               0         0
       196      9618               1       0.9396985             0.5               0         0
       197      9618               1        0.959799             0.5               0         0
       198      9618               1       0.9798995             0.5               0         0
       199      9616               1               0             0.5               0         0
GAL
1
0.0
INTERNAL
1
2
200 1
       600     13901               1               0             0.5               0         0
       601     13902       0.4623116               0             0.5               0         0
       602     13902       0.9246231               0             0.5               0         0
       603     13902               1       0.3869347             0.5               0         0
       604     13902               1       0.8492462             0.5               0         0
       605     13911       0.3115578               0             0.5               0         0
       606     13911       0.7738693               0             0.5               0         0
       607     13912       0.2361809               0             0.5               0         0
       608     13912       0.6984925               0             0.5               0         0
       609     13915        0.160804               0             0.5               0         0
       610     13915       0.6231156               0             0.5               0         0
       611     13916      0.08542714               0             0.5               0         0
       612     13916       0.5477387               0             0.5               0         0
       613     14599      0.01005025               0             0.5               0         0
       614     14599       0.4723618               0             0.5               0         0
       615     14599       0.9346734               0             0.5               0         0
       616     14600       0.3969849               0             0.5               0         0
       617     14600       0.8592965               0             0.5               0         0
       618     14600               1        0.321608             0.5               0         0
       619     14600               1       0.7839196             0.5               0         0
       620     14581       0.2462312               0             0.5               0         0
       621     14581       0.7085427               0             0.5               0         0
       622     14582       0.1708543               0             0.5               0         0
       623     14582       0.6331658               0             0.5               0         0
       624     14593      0.09547739               0             0.5               0         0
       625     14593        0.557789               0             0.5               0         0
       626     14594       0.0201005               0             0.5               0         0
       627     14594       0.4824121               0             0.5               0         0
       628     14594       0.9447236               0             0.5               0         0
       629     14597       0.4070352               0             0.5               0         0
       630     14597       0.8693467               0             0.5               0         0
       631     14598       0.3316583               0             0.5               0         0
       632     14598       0.7939699               0             0.5               0         0
       633     14641       0.2562814               0             0.5               0         0
       634     14641       0.7185929               0             0.5               0         0
       635     14642       0.1809045               0             0.5               0         0
       636     14642       0.6432161               0             0.5               0         0
       637     14645       0.1055276               0             0.5               0         0
       638     14645       0.5678392               0             0.5               0         0
       639     14646      0.03015075               0             0.5               0         0
       640     14646       0.4924623               0             0.5               0         0
       641     14646       0.9547738               0             0.5               0         0
       642     14657       0.4170854               0             0.5               0         0
       643     14657        0.879397               0             0.5               0         0
       644     14658       0.3417085               0             0.5               0         0
       645     14658       0.8040201               0             0.5               0         0
       646     14661       0.2663317               0             0.5               0         0
       647     14661       0.7286432               0             0.5               0         0
       648     14662       0.1909548               0             0.5               0         0
       649     14662       0.6532663               0             0.5               0         0
       650     14833       0.1155779               0             0.5               0         0
       651     14833       0.5778894               0             0.5               0         0
       652     14834        0.040201               0             0.5               0         0
       653     14834       0.5025126               0             0.5               0         0
       654     14834       0.9648241               0             0.5               0         0
       655     14834               1       0.4271357             0.5               0         0
       656     14834               1       0.8894472             0.5               0         0
       657     14835       0.3517588               0             0.5               0         0
       658     14835       0.8140703               0             0.5               0         0
       659     14836       0.2763819               0             0.5               0         0
       660     14836       0.7386935               0             0.5               0         0
       661     14847        0.201005               0             0.5               0         0
       662     14847       0.6633166               0             0.5               0         0
       663     14848       0.1256281               0             0.5               0         0
       664     14848       0.5879397               0             0.5               0         0
       665     14848               1      0.05025126             0.5               0         0
       666     14848               1       0.5125628             0.5               0         0
       667     14848               1       0.9748744             0.5               0         0
       668     14845       0.4371859               0             0.5               0         0
       669     14845       0.8994975               0             0.5               0         0
       670     14846        0.361809               0             0.5               0         0
       671     14846       0.8241206               0             0.5               0         0
       672     14889       0.2864321               0             0.5               0         0
       673     14889       0.7487437               0             0.5               0         0
       674     14889               1       0.2110553             0.5               0         0
       675     14889               1       0.6733668             0.5               0         0
       676     14888       0.1356784               0             0.5               0         0
       677     14888         0.59799               0             0.5               0         0
       678     14891      0.06030151               0             0.5               0         0
       679     14891        0.522613               0             0.5               0         0
       680     14891       0.9849246               0             0.5               0         0
       681     14892       0.4472362               0             0.5               0         0
       682     14892       0.9095477               0             0.5               0         0
       683     14903       0.3718593               0             0.5               0         0
       684     14903       0.8341709               0             0.5               0         0
       685     14903               1       0.2964824             0.5               0         0
       686     14903               1        0.758794             0.5               0         0
       687     14818       0.2211055               0             0.5               0         0
       688     14818       0.6834171               0             0.5               0         0
       689     14821       0.1457286               0             0.5               0         0
       690     14821       0.6080402               0             0.5               0         0
       691     14907               1       0.9296482             0.5               0         0
       692     14907               1       0.4673367             0.5               0         0
       693     14907               1     0.005025126             0.5               0         0
       694     14907       0.5427136               0             0.5               0         0
       695     14907      0.08040201               0             0.5               0         0
       696     14906               1       0.6180905             0.5               0         0
       697     14906               1       0.1557789             0.5               0         0
       698     14906       0.6934673               0             0.5               0         0
       699     14906       0.2311558               0             0.5               0         0
       700     14905       0.7688442               0             0.5               0         0
       701     14905       0.3065327               0             0.5               0         0
       702     14894       0.8442211               0             0.5               0         0
       703     14894       0.3819095               0             0.5               0         0
       704     14893        0.919598               0             0.5               0         0
       705     14893       0.4572864               0             0.5               0         0
       706     14896               1       0.9949749             0.5               0         0
       707     14896               1       0.5326633             0.5               0         0
       708     14896               1      0.07035176             0.5               0         0
       709     14896       0.6080402               0             0.5               0         0
       710     14896       0.1457286               0             0.5               0         0
       711     14895       0.6834171               0             0.5               0         0
       712     14895       0.2211055               0             0.5               0         0