# File generated by Flopy version 3.3.5 on 06/01/2022 at 18:11:39.
BEGIN options
  TIME_UNITS  seconds
END options

BEGIN dimensions
  NPER  1
END dimensions

BEGIN perioddata
       3.00000000  1       1.00000000
END perioddata

