# File generated by Flopy version 3.3.5 on 06/01/2022 at 18:12:27.
BEGIN griddata
  strt
    CONSTANT      15.00000000
END griddata

