# File generated by Flopy version 3.3.5 on 04/25/2022 at 00:15:37.
BEGIN options
  TIME_UNITS  seconds
END options

BEGIN dimensions
  NPER  1
END dimensions

BEGIN perioddata
       5.00000000  1       1.00000000
END perioddata

