# File generated by Flopy version 3.3.5 on 05/30/2022 at 17:40:38.
BEGIN griddata
  strt
    CONSTANT      15.00000000
END griddata

