# File generated by Flopy version 3.3.5 on 04/25/2022 at 00:15:40.
BEGIN griddata
  strt
    CONSTANT      15.00000000
END griddata

