# File generated by Flopy version 3.3.5 on 04/28/2022 at 15:59:04.
BEGIN options
  BOUNDNAMES
  SAVE_FLOWS
END options

BEGIN dimensions
  MAXBOUND  9
END dimensions

BEGIN period  1
    OPEN/CLOSE  'ext/wel_spd_1.txt'
END period  1

