pcf
* control data
             restart          estimation
       436        31         5         0         3
         5         3              single               point
   2.000000E+01  -3.000000E+00   3.000000E-01   1.000000E-02        -7
   1.000000E+01   1.000000E+01   1.000000E-03
   1.000000E-01
         0   1.000000E-02         3         3   1.000000E-02         3
         0         0         0
* singular value decomposition
         1
  10000000    1.000000E-06
1
* parameter groups
 hk                      relative              1.0000000000E-02       0.0  switch                2.0000000000E+00       parabolic             1.0000000000E-05      5.0000000000E-01       smaller              
 criv                    relative              1.0000000000E-02       0.0  switch                2.0000000000E+00       parabolic             1.0000000000E-05      5.0000000000E-01       smaller              
 cghb                    relative              1.0000000000E-02       0.0  switch                2.0000000000E+00       parabolic             1.0000000000E-05      5.0000000000E-01       smaller              
 cdrn                    relative              1.0000000000E-02       0.0  switch                2.0000000000E+00       parabolic             1.0000000000E-05      5.0000000000E-01       smaller              
 rech                    relative              1.0000000000E-02       0.0  switch                2.0000000000E+00       parabolic             1.0000000000E-05      5.0000000000E-01       smaller              
* parameter data
 pname:hk_inst:0_ptype:pp_pstyle:m_x:408051.03_y:6429181.70_zone:1   log                    factor                1.0000000000E+00      1.0000000000E-05      1.0000000000E+05       hk                    1.0000000000E+00      0.0000000000E+00      1          
 pname:hk_inst:0_ptype:pp_pstyle:m_x:408151.03_y:6429181.70_zone:1   log                    factor                1.0000000000E+00      1.0000000000E-05      1.0000000000E+05       hk                    1.0000000000E+00      0.0000000000E+00      1          
 pname:hk_inst:0_ptype:pp_pstyle:m_x:408251.03_y:6429181.70_zone:1   log                    factor                1.0000000000E+00      1.0000000000E-05      1.0000000000E+05       hk                    1.0000000000E+00      0.0000000000E+00      1          
 pname:hk_inst:0_ptype:pp_pstyle:m_x:408351.03_y:6429181.70_zone:1   log                    factor                1.0000000000E+00      1.0000000000E-05      1.0000000000E+05       hk                    1.0000000000E+00      0.0000000000E+00      1          
 pname:hk_inst:0_ptype:pp_pstyle:m_x:408451.03_y:6429181.70_zone:1   log                    factor                1.0000000000E+00      1.0000000000E-05      1.0000000000E+05       hk                    1.0000000000E+00      0.0000000000E+00      1          
 pname:hk_inst:0_ptype:pp_pstyle:m_x:408551.03_y:6429181.70_zone:1   log                    factor                1.0000000000E+00      1.0000000000E-05      1.0000000000E+05       hk                    1.0000000000E+00      0.0000000000E+00      1          
 pname:hk_inst:0_ptype:pp_pstyle:m_x:408651.03_y:6429181.70_zone:1   log                    factor                1.0000000000E+00      1.0000000000E-05      1.0000000000E+05       hk                    1.0000000000E+00      0.0000000000E+00      1          
 pname:hk_inst:0_ptype:pp_pstyle:m_x:408751.03_y:6429181.70_zone:1   log                    factor                1.0000000000E+00      1.0000000000E-05      1.0000000000E+05       hk                    1.0000000000E+00      0.0000000000E+00      1          
 pname:hk_inst:0_ptype:pp_pstyle:m_x:408851.03_y:6429181.70_zone:1   log                    factor                1.0000000000E+00      1.0000000000E-05      1.0000000000E+05       hk                    1.0000000000E+00      0.0000000000E+00      1          
 pname:hk_inst:0_ptype:pp_pstyle:m_x:408951.03_y:6429181.70_zone:1   log                    factor                1.0000000000E+00      1.0000000000E-05      1.0000000000E+05       hk                    1.0000000000E+00      0.0000000000E+00      1          
 pname:hk_inst:0_ptype:pp_pstyle:m_x:407951.03_y:6429081.70_zone:1   log                    factor                1.0000000000E+00      1.0000000000E-05      1.0000000000E+05       hk                    1.0000000000E+00      0.0000000000E+00      1          
 pname:hk_inst:0_ptype:pp_pstyle:m_x:408051.03_y:6429081.70_zone:1   log                    factor                1.0000000000E+00      1.0000000000E-05      1.0000000000E+05       hk                    1.0000000000E+00      0.0000000000E+00      1          
 pname:hk_inst:0_ptype:pp_pstyle:m_x:408151.03_y:6429081.70_zone:1   log                    factor                1.0000000000E+00      1.0000000000E-05      1.0000000000E+05       hk                    1.0000000000E+00      0.0000000000E+00      1          
 pname:hk_inst:0_ptype:pp_pstyle:m_x:408251.03_y:6429081.70_zone:1   log                    factor                1.0000000000E+00      1.0000000000E-05      1.0000000000E+05       hk                    1.0000000000E+00      0.0000000000E+00      1          
 pname:hk_inst:0_ptype:pp_pstyle:m_x:408351.03_y:6429081.70_zone:1   log                    factor                1.0000000000E+00      1.0000000000E-05      1.0000000000E+05       hk                    1.0000000000E+00      0.0000000000E+00      1          
 pname:hk_inst:0_ptype:pp_pstyle:m_x:408451.03_y:6429081.70_zone:1   log                    factor                1.0000000000E+00      1.0000000000E-05      1.0000000000E+05       hk                    1.0000000000E+00      0.0000000000E+00      1          
 pname:hk_inst:0_ptype:pp_pstyle:m_x:408551.03_y:6429081.70_zone:1   log                    factor                1.0000000000E+00      1.0000000000E-05      1.0000000000E+05       hk                    1.0000000000E+00      0.0000000000E+00      1          
 pname:hk_inst:0_ptype:pp_pstyle:m_x:408651.03_y:6429081.70_zone:1   log                    factor                1.0000000000E+00      1.0000000000E-05      1.0000000000E+05       hk                    1.0000000000E+00      0.0000000000E+00      1          
 pname:hk_inst:0_ptype:pp_pstyle:m_x:408751.03_y:6429081.70_zone:1   log                    factor                1.0000000000E+00      1.0000000000E-05      1.0000000000E+05       hk                    1.0000000000E+00      0.0000000000E+00      1          
 pname:hk_inst:0_ptype:pp_pstyle:m_x:408851.03_y:6429081.70_zone:1   log                    factor                1.0000000000E+00      1.0000000000E-05      1.0000000000E+05       hk                    1.0000000000E+00      0.0000000000E+00      1          
 pname:hk_inst:0_ptype:pp_pstyle:m_x:408951.03_y:6429081.70_zone:1   log                    factor                1.0000000000E+00      1.0000000000E-05      1.0000000000E+05       hk                    1.0000000000E+00      0.0000000000E+00      1          
 pname:hk_inst:0_ptype:pp_pstyle:m_x:409051.03_y:6429081.70_zone:1   log                    factor                1.0000000000E+00      1.0000000000E-05      1.0000000000E+05       hk                    1.0000000000E+00      0.0000000000E+00      1          
 pname:hk_inst:0_ptype:pp_pstyle:m_x:409151.03_y:6429081.70_zone:1   log                    factor                1.0000000000E+00      1.0000000000E-05      1.0000000000E+05       hk                    1.0000000000E+00      0.0000000000E+00      1          
 pname:hk_inst:0_ptype:pp_pstyle:m_x:409251.03_y:6429081.70_zone:1   log                    factor                1.0000000000E+00      1.0000000000E-05      1.0000000000E+05       hk                    1.0000000000E+00      0.0000000000E+00      1          
 pname:hk_inst:0_ptype:pp_pstyle:m_x:407751.03_y:6428981.70_zone:1   log                    factor                1.0000000000E+00      1.0000000000E-05      1.0000000000E+05       hk                    1.0000000000E+00      0.0000000000E+00      1          
 pname:hk_inst:0_ptype:pp_pstyle:m_x:407851.03_y:6428981.70_zone:1   log                    factor                1.0000000000E+00      1.0000000000E-05      1.0000000000E+05       hk                    1.0000000000E+00      0.0000000000E+00      1          
 pname:hk_inst:0_ptype:pp_pstyle:m_x:407951.03_y:6428981.70_zone:1   log                    factor                1.0000000000E+00      1.0000000000E-05      1.0000000000E+05       hk                    1.0000000000E+00      0.0000000000E+00      1          
 pname:hk_inst:0_ptype:pp_pstyle:m_x:408051.03_y:6428981.70_zone:1   log                    factor                1.0000000000E+00      1.0000000000E-05      1.0000000000E+05       hk                    1.0000000000E+00      0.0000000000E+00      1          
 pname:hk_inst:0_ptype:pp_pstyle:m_x:408151.03_y:6428981.70_zone:1   log                    factor                1.0000000000E+00      1.0000000000E-05      1.0000000000E+05       hk                    1.0000000000E+00      0.0000000000E+00      1          
 pname:hk_inst:0_ptype:pp_pstyle:m_x:408251.03_y:6428981.70_zone:1   log                    factor                1.0000000000E+00      1.0000000000E-05      1.0000000000E+05       hk                    1.0000000000E+00      0.0000000000E+00      1          
 pname:hk_inst:0_ptype:pp_pstyle:m_x:408351.03_y:6428981.70_zone:1   log                    factor                1.0000000000E+00      1.0000000000E-05      1.0000000000E+05       hk                    1.0000000000E+00      0.0000000000E+00      1          
 pname:hk_inst:0_ptype:pp_pstyle:m_x:408451.03_y:6428981.70_zone:1   log                    factor                1.0000000000E+00      1.0000000000E-05      1.0000000000E+05       hk                    1.0000000000E+00      0.0000000000E+00      1          
 pname:hk_inst:0_ptype:pp_pstyle:m_x:408551.03_y:6428981.70_zone:1   log                    factor                1.0000000000E+00      1.0000000000E-05      1.0000000000E+05       hk                    1.0000000000E+00      0.0000000000E+00      1          
 pname:hk_inst:0_ptype:pp_pstyle:m_x:408651.03_y:6428981.70_zone:1   log                    factor                1.0000000000E+00      1.0000000000E-05      1.0000000000E+05       hk                    1.0000000000E+00      0.0000000000E+00      1          
 pname:hk_inst:0_ptype:pp_pstyle:m_x:408751.03_y:6428981.70_zone:1   log                    factor                1.0000000000E+00      1.0000000000E-05      1.0000000000E+05       hk                    1.0000000000E+00      0.0000000000E+00      1          
 pname:hk_inst:0_ptype:pp_pstyle:m_x:408851.03_y:6428981.70_zone:1   log                    factor                1.0000000000E+00      1.0000000000E-05      1.0000000000E+05       hk                    1.0000000000E+00      0.0000000000E+00      1          
 pname:hk_inst:0_ptype:pp_pstyle:m_x:408951.03_y:6428981.70_zone:1   log                    factor                1.0000000000E+00      1.0000000000E-05      1.0000000000E+05       hk                    1.0000000000E+00      0.0000000000E+00      1          
 pname:hk_inst:0_ptype:pp_pstyle:m_x:409051.03_y:6428981.70_zone:1   log                    factor                1.0000000000E+00      1.0000000000E-05      1.0000000000E+05       hk                    1.0000000000E+00      0.0000000000E+00      1          
 pname:hk_inst:0_ptype:pp_pstyle:m_x:409151.03_y:6428981.70_zone:1   log                    factor                1.0000000000E+00      1.0000000000E-05      1.0000000000E+05       hk                    1.0000000000E+00      0.0000000000E+00      1          
 pname:hk_inst:0_ptype:pp_pstyle:m_x:409251.03_y:6428981.70_zone:1   log                    factor                1.0000000000E+00      1.0000000000E-05      1.0000000000E+05       hk                    1.0000000000E+00      0.0000000000E+00      1          
 pname:hk_inst:0_ptype:pp_pstyle:m_x:409351.03_y:6428981.70_zone:1   log                    factor                1.0000000000E+00      1.0000000000E-05      1.0000000000E+05       hk                    1.0000000000E+00      0.0000000000E+00      1          
 pname:hk_inst:0_ptype:pp_pstyle:m_x:409451.03_y:6428981.70_zone:1   log                    factor                1.0000000000E+00      1.0000000000E-05      1.0000000000E+05       hk                    1.0000000000E+00      0.0000000000E+00      1          
 pname:hk_inst:0_ptype:pp_pstyle:m_x:407751.03_y:6428881.70_zone:1   log                    factor                1.0000000000E+00      1.0000000000E-05      1.0000000000E+05       hk                    1.0000000000E+00      0.0000000000E+00      1          
 pname:hk_inst:0_ptype:pp_pstyle:m_x:407851.03_y:6428881.70_zone:1   log                    factor                1.0000000000E+00      1.0000000000E-05      1.0000000000E+05       hk                    1.0000000000E+00      0.0000000000E+00      1          
 pname:hk_inst:0_ptype:pp_pstyle:m_x:407951.03_y:6428881.70_zone:1   log                    factor                1.0000000000E+00      1.0000000000E-05      1.0000000000E+05       hk                    1.0000000000E+00      0.0000000000E+00      1          
 pname:hk_inst:0_ptype:pp_pstyle:m_x:408051.03_y:6428881.70_zone:1   log                    factor                1.0000000000E+00      1.0000000000E-05      1.0000000000E+05       hk                    1.0000000000E+00      0.0000000000E+00      1          
 pname:hk_inst:0_ptype:pp_pstyle:m_x:408151.03_y:6428881.70_zone:1   log                    factor                1.0000000000E+00      1.0000000000E-05      1.0000000000E+05       hk                    1.0000000000E+00      0.0000000000E+00      1          
 pname:hk_inst:0_ptype:pp_pstyle:m_x:408251.03_y:6428881.70_zone:1   log                    factor                1.0000000000E+00      1.0000000000E-05      1.0000000000E+05       hk                    1.0000000000E+00      0.0000000000E+00      1          
 pname:hk_inst:0_ptype:pp_pstyle:m_x:408351.03_y:6428881.70_zone:1   log                    factor                1.0000000000E+00      1.0000000000E-05      1.0000000000E+05       hk                    1.0000000000E+00      0.0000000000E+00      1          
 pname:hk_inst:0_ptype:pp_pstyle:m_x:408451.03_y:6428881.70_zone:1   log                    factor                1.0000000000E+00      1.0000000000E-05      1.0000000000E+05       hk                    1.0000000000E+00      0.0000000000E+00      1          
 pname:hk_inst:0_ptype:pp_pstyle:m_x:408551.03_y:6428881.70_zone:1   log                    factor                1.0000000000E+00      1.0000000000E-05      1.0000000000E+05       hk                    1.0000000000E+00      0.0000000000E+00      1          
 pname:hk_inst:0_ptype:pp_pstyle:m_x:408651.03_y:6428881.70_zone:1   log                    factor                1.0000000000E+00      1.0000000000E-05      1.0000000000E+05       hk                    1.0000000000E+00      0.0000000000E+00      1          
 pname:hk_inst:0_ptype:pp_pstyle:m_x:408751.03_y:6428881.70_zone:1   log                    factor                1.0000000000E+00      1.0000000000E-05      1.0000000000E+05       hk                    1.0000000000E+00      0.0000000000E+00      1          
 pname:hk_inst:0_ptype:pp_pstyle:m_x:408851.03_y:6428881.70_zone:1   log                    factor                1.0000000000E+00      1.0000000000E-05      1.0000000000E+05       hk                    1.0000000000E+00      0.0000000000E+00      1          
 pname:hk_inst:0_ptype:pp_pstyle:m_x:408951.03_y:6428881.70_zone:1   log                    factor                1.0000000000E+00      1.0000000000E-05      1.0000000000E+05       hk                    1.0000000000E+00      0.0000000000E+00      1          
 pname:hk_inst:0_ptype:pp_pstyle:m_x:409051.03_y:6428881.70_zone:1   log                    factor                1.0000000000E+00      1.0000000000E-05      1.0000000000E+05       hk                    1.0000000000E+00      0.0000000000E+00      1          
 pname:hk_inst:0_ptype:pp_pstyle:m_x:409151.03_y:6428881.70_zone:1   log                    factor                1.0000000000E+00      1.0000000000E-05      1.0000000000E+05       hk                    1.0000000000E+00      0.0000000000E+00      1          
 pname:hk_inst:0_ptype:pp_pstyle:m_x:409251.03_y:6428881.70_zone:1   log                    factor                1.0000000000E+00      1.0000000000E-05      1.0000000000E+05       hk                    1.0000000000E+00      0.0000000000E+00      1          
 pname:hk_inst:0_ptype:pp_pstyle:m_x:409351.03_y:6428881.70_zone:1   log                    factor                1.0000000000E+00      1.0000000000E-05      1.0000000000E+05       hk                    1.0000000000E+00      0.0000000000E+00      1          
 pname:hk_inst:0_ptype:pp_pstyle:m_x:409451.03_y:6428881.70_zone:1   log                    factor                1.0000000000E+00      1.0000000000E-05      1.0000000000E+05       hk                    1.0000000000E+00      0.0000000000E+00      1          
 pname:hk_inst:0_ptype:pp_pstyle:m_x:409551.03_y:6428881.70_zone:1   log                    factor                1.0000000000E+00      1.0000000000E-05      1.0000000000E+05       hk                    1.0000000000E+00      0.0000000000E+00      1          
 pname:hk_inst:0_ptype:pp_pstyle:m_x:407751.03_y:6428781.70_zone:1   log                    factor                1.0000000000E+00      1.0000000000E-05      1.0000000000E+05       hk                    1.0000000000E+00      0.0000000000E+00      1          
 pname:hk_inst:0_ptype:pp_pstyle:m_x:407851.03_y:6428781.70_zone:1   log                    factor                1.0000000000E+00      1.0000000000E-05      1.0000000000E+05       hk                    1.0000000000E+00      0.0000000000E+00      1          
 pname:hk_inst:0_ptype:pp_pstyle:m_x:407951.03_y:6428781.70_zone:1   log                    factor                1.0000000000E+00      1.0000000000E-05      1.0000000000E+05       hk                    1.0000000000E+00      0.0000000000E+00      1          
 pname:hk_inst:0_ptype:pp_pstyle:m_x:408051.03_y:6428781.70_zone:1   log                    factor                1.0000000000E+00      1.0000000000E-05      1.0000000000E+05       hk                    1.0000000000E+00      0.0000000000E+00      1          
 pname:hk_inst:0_ptype:pp_pstyle:m_x:408151.03_y:6428781.70_zone:1   log                    factor                1.0000000000E+00      1.0000000000E-05      1.0000000000E+05       hk                    1.0000000000E+00      0.0000000000E+00      1          
 pname:hk_inst:0_ptype:pp_pstyle:m_x:408251.03_y:6428781.70_zone:1   log                    factor                1.0000000000E+00      1.0000000000E-05      1.0000000000E+05       hk                    1.0000000000E+00      0.0000000000E+00      1          
 pname:hk_inst:0_ptype:pp_pstyle:m_x:408351.03_y:6428781.70_zone:1   log                    factor                1.0000000000E+00      1.0000000000E-05      1.0000000000E+05       hk                    1.0000000000E+00      0.0000000000E+00      1          
 pname:hk_inst:0_ptype:pp_pstyle:m_x:408451.03_y:6428781.70_zone:1   log                    factor                1.0000000000E+00      1.0000000000E-05      1.0000000000E+05       hk                    1.0000000000E+00      0.0000000000E+00      1          
 pname:hk_inst:0_ptype:pp_pstyle:m_x:408551.03_y:6428781.70_zone:1   log                    factor                1.0000000000E+00      1.0000000000E-05      1.0000000000E+05       hk                    1.0000000000E+00      0.0000000000E+00      1          
 pname:hk_inst:0_ptype:pp_pstyle:m_x:408651.03_y:6428781.70_zone:1   log                    factor                1.0000000000E+00      1.0000000000E-05      1.0000000000E+05       hk                    1.0000000000E+00      0.0000000000E+00      1          
 pname:hk_inst:0_ptype:pp_pstyle:m_x:408751.03_y:6428781.70_zone:1   log                    factor                1.0000000000E+00      1.0000000000E-05      1.0000000000E+05       hk                    1.0000000000E+00      0.0000000000E+00      1          
 pname:hk_inst:0_ptype:pp_pstyle:m_x:408851.03_y:6428781.70_zone:1   log                    factor                1.0000000000E+00      1.0000000000E-05      1.0000000000E+05       hk                    1.0000000000E+00      0.0000000000E+00      1          
 pname:hk_inst:0_ptype:pp_pstyle:m_x:408951.03_y:6428781.70_zone:1   log                    factor                1.0000000000E+00      1.0000000000E-05      1.0000000000E+05       hk                    1.0000000000E+00      0.0000000000E+00      1          
 pname:hk_inst:0_ptype:pp_pstyle:m_x:409051.03_y:6428781.70_zone:1   log                    factor                1.0000000000E+00      1.0000000000E-05      1.0000000000E+05       hk                    1.0000000000E+00      0.0000000000E+00      1          
 pname:hk_inst:0_ptype:pp_pstyle:m_x:409151.03_y:6428781.70_zone:1   log                    factor                1.0000000000E+00      1.0000000000E-05      1.0000000000E+05       hk                    1.0000000000E+00      0.0000000000E+00      1          
 pname:hk_inst:0_ptype:pp_pstyle:m_x:409251.03_y:6428781.70_zone:1   log                    factor                1.0000000000E+00      1.0000000000E-05      1.0000000000E+05       hk                    1.0000000000E+00      0.0000000000E+00      1          
 pname:hk_inst:0_ptype:pp_pstyle:m_x:409351.03_y:6428781.70_zone:1   log                    factor                1.0000000000E+00      1.0000000000E-05      1.0000000000E+05       hk                    1.0000000000E+00      0.0000000000E+00      1          
 pname:hk_inst:0_ptype:pp_pstyle:m_x:409451.03_y:6428781.70_zone:1   log                    factor                1.0000000000E+00      1.0000000000E-05      1.0000000000E+05       hk                    1.0000000000E+00      0.0000000000E+00      1          
 pname:hk_inst:0_ptype:pp_pstyle:m_x:409551.03_y:6428781.70_zone:1   log                    factor                1.0000000000E+00      1.0000000000E-05      1.0000000000E+05       hk                    1.0000000000E+00      0.0000000000E+00      1          
 pname:hk_inst:0_ptype:pp_pstyle:m_x:407751.03_y:6428681.70_zone:1   log                    factor                1.0000000000E+00      1.0000000000E-05      1.0000000000E+05       hk                    1.0000000000E+00      0.0000000000E+00      1          
 pname:hk_inst:0_ptype:pp_pstyle:m_x:407851.03_y:6428681.70_zone:1   log                    factor                1.0000000000E+00      1.0000000000E-05      1.0000000000E+05       hk                    1.0000000000E+00      0.0000000000E+00      1          
 pname:hk_inst:0_ptype:pp_pstyle:m_x:407951.03_y:6428681.70_zone:1   log                    factor                1.0000000000E+00      1.0000000000E-05      1.0000000000E+05       hk                    1.0000000000E+00      0.0000000000E+00      1          
 pname:hk_inst:0_ptype:pp_pstyle:m_x:408051.03_y:6428681.70_zone:1   log                    factor                1.0000000000E+00      1.0000000000E-05      1.0000000000E+05       hk                    1.0000000000E+00      0.0000000000E+00      1          
 pname:hk_inst:0_ptype:pp_pstyle:m_x:408151.03_y:6428681.70_zone:1   log                    factor                1.0000000000E+00      1.0000000000E-05      1.0000000000E+05       hk                    1.0000000000E+00      0.0000000000E+00      1          
 pname:hk_inst:0_ptype:pp_pstyle:m_x:408251.03_y:6428681.70_zone:1   log                    factor                1.0000000000E+00      1.0000000000E-05      1.0000000000E+05       hk                    1.0000000000E+00      0.0000000000E+00      1          
 pname:hk_inst:0_ptype:pp_pstyle:m_x:408351.03_y:6428681.70_zone:1   log                    factor                1.0000000000E+00      1.0000000000E-05      1.0000000000E+05       hk                    1.0000000000E+00      0.0000000000E+00      1          
 pname:hk_inst:0_ptype:pp_pstyle:m_x:408451.03_y:6428681.70_zone:1   log                    factor                1.0000000000E+00      1.0000000000E-05      1.0000000000E+05       hk                    1.0000000000E+00      0.0000000000E+00      1          
 pname:hk_inst:0_ptype:pp_pstyle:m_x:408551.03_y:6428681.70_zone:1   log                    factor                1.0000000000E+00      1.0000000000E-05      1.0000000000E+05       hk                    1.0000000000E+00      0.0000000000E+00      1          
 pname:hk_inst:0_ptype:pp_pstyle:m_x:408651.03_y:6428681.70_zone:1   log                    factor                1.0000000000E+00      1.0000000000E-05      1.0000000000E+05       hk                    1.0000000000E+00      0.0000000000E+00      1          
 pname:hk_inst:0_ptype:pp_pstyle:m_x:408751.03_y:6428681.70_zone:1   log                    factor                1.0000000000E+00      1.0000000000E-05      1.0000000000E+05       hk                    1.0000000000E+00      0.0000000000E+00      1          
 pname:hk_inst:0_ptype:pp_pstyle:m_x:408851.03_y:6428681.70_zone:1   log                    factor                1.0000000000E+00      1.0000000000E-05      1.0000000000E+05       hk                    1.0000000000E+00      0.0000000000E+00      1          
 pname:hk_inst:0_ptype:pp_pstyle:m_x:408951.03_y:6428681.70_zone:1   log                    factor                1.0000000000E+00      1.0000000000E-05      1.0000000000E+05       hk                    1.0000000000E+00      0.0000000000E+00      1          
 pname:hk_inst:0_ptype:pp_pstyle:m_x:409051.03_y:6428681.70_zone:1   log                    factor                1.0000000000E+00      1.0000000000E-05      1.0000000000E+05       hk                    1.0000000000E+00      0.0000000000E+00      1          
 pname:hk_inst:0_ptype:pp_pstyle:m_x:409151.03_y:6428681.70_zone:1   log                    factor                1.0000000000E+00      1.0000000000E-05      1.0000000000E+05       hk                    1.0000000000E+00      0.0000000000E+00      1          
 pname:hk_inst:0_ptype:pp_pstyle:m_x:409251.03_y:6428681.70_zone:1   log                    factor                1.0000000000E+00      1.0000000000E-05      1.0000000000E+05       hk                    1.0000000000E+00      0.0000000000E+00      1          
 pname:hk_inst:0_ptype:pp_pstyle:m_x:409351.03_y:6428681.70_zone:1   log                    factor                1.0000000000E+00      1.0000000000E-05      1.0000000000E+05       hk                    1.0000000000E+00      0.0000000000E+00      1          
 pname:hk_inst:0_ptype:pp_pstyle:m_x:409451.03_y:6428681.70_zone:1   log                    factor                1.0000000000E+00      1.0000000000E-05      1.0000000000E+05       hk                    1.0000000000E+00      0.0000000000E+00      1          
 pname:hk_inst:0_ptype:pp_pstyle:m_x:409551.03_y:6428681.70_zone:1   log                    factor                1.0000000000E+00      1.0000000000E-05      1.0000000000E+05       hk                    1.0000000000E+00      0.0000000000E+00      1          
 pname:hk_inst:0_ptype:pp_pstyle:m_x:407751.03_y:6428581.70_zone:1   log                    factor                1.0000000000E+00      1.0000000000E-05      1.0000000000E+05       hk                    1.0000000000E+00      0.0000000000E+00      1          
 pname:hk_inst:0_ptype:pp_pstyle:m_x:407851.03_y:6428581.70_zone:1   log                    factor                1.0000000000E+00      1.0000000000E-05      1.0000000000E+05       hk                    1.0000000000E+00      0.0000000000E+00      1          
 pname:hk_inst:0_ptype:pp_pstyle:m_x:407951.03_y:6428581.70_zone:1   log                    factor                1.0000000000E+00      1.0000000000E-05      1.0000000000E+05       hk                    1.0000000000E+00      0.0000000000E+00      1          
 pname:hk_inst:0_ptype:pp_pstyle:m_x:408051.03_y:6428581.70_zone:1   log                    factor                1.0000000000E+00      1.0000000000E-05      1.0000000000E+05       hk                    1.0000000000E+00      0.0000000000E+00      1          
 pname:hk_inst:0_ptype:pp_pstyle:m_x:408151.03_y:6428581.70_zone:1   log                    factor                1.0000000000E+00      1.0000000000E-05      1.0000000000E+05       hk                    1.0000000000E+00      0.0000000000E+00      1          
 pname:hk_inst:0_ptype:pp_pstyle:m_x:408251.03_y:6428581.70_zone:1   log                    factor                1.0000000000E+00      1.0000000000E-05      1.0000000000E+05       hk                    1.0000000000E+00      0.0000000000E+00      1          
 pname:hk_inst:0_ptype:pp_pstyle:m_x:408351.03_y:6428581.70_zone:1   log                    factor                1.0000000000E+00      1.0000000000E-05      1.0000000000E+05       hk                    1.0000000000E+00      0.0000000000E+00      1          
 pname:hk_inst:0_ptype:pp_pstyle:m_x:408451.03_y:6428581.70_zone:1   log                    factor                1.0000000000E+00      1.0000000000E-05      1.0000000000E+05       hk                    1.0000000000E+00      0.0000000000E+00      1          
 pname:hk_inst:0_ptype:pp_pstyle:m_x:408551.03_y:6428581.70_zone:1   log                    factor                1.0000000000E+00      1.0000000000E-05      1.0000000000E+05       hk                    1.0000000000E+00      0.0000000000E+00      1          
 pname:hk_inst:0_ptype:pp_pstyle:m_x:408651.03_y:6428581.70_zone:1   log                    factor                1.0000000000E+00      1.0000000000E-05      1.0000000000E+05       hk                    1.0000000000E+00      0.0000000000E+00      1          