# File generated by Flopy version 3.3.5 on 06/01/2022 at 18:12:09.
BEGIN options
  TIME_UNITS  seconds
END options

BEGIN dimensions
  NPER  1
END dimensions

BEGIN perioddata
       7.00000000  1       1.00000000
END perioddata

