# File generated by Flopy version 3.3.5 on 05/30/2022 at 17:40:54.
BEGIN options
  BUDGET  FILEOUT  ml.cbc
  HEAD  FILEOUT  ml.hds
END options

BEGIN period  1
  SAVE  head  last
  SAVE  budget  last
END period  1

