# File generated by Flopy version 3.3.5 on 06/01/2022 at 18:12:12.
BEGIN options
  READASARRAYS
  SAVE_FLOWS
END options

BEGIN period  1
  recharge
    OPEN/CLOSE  '../com_ext/rech_spd_1.txt'  FACTOR  1.0
END period  1

