# File generated by Flopy version 3.3.5 on 06/01/2022 at 13:18:59.
BEGIN options
  BOUNDNAMES
  SAVE_FLOWS
END options

BEGIN dimensions
  MAXBOUND  9
END dimensions

BEGIN period  1
    OPEN/CLOSE  'ext/wel_spd_1.txt'
END period  1

